mac-x0190-diamond-x0852_0_B
     RDKit          3D

 23 25  0  0  0  0  0  0  0  0999 V2000
   -9.3210   13.9690    2.2270 O   0  0  0  0  0  0  0  0  0  0  0  0
   -9.1060   13.9650    0.8140 C   0  0  1  0  0  0  0  0  0  0  0  0
  -10.0640   14.9340    0.1310 C   0  0  0  0  0  0  0  0  0  0  0  0
   -7.6780   14.3010    0.5240 C   0  0  0  0  0  0  0  0  0  0  0  0
  -11.0790   15.5520    1.0810 C   0  0  0  0  0  0  0  0  0  0  0  0
   -7.3070   14.6660   -0.7390 N   0  0  0  0  0  0  0  0  0  0  0  0
   -6.6340   14.3040    1.3370 N   0  0  0  0  0  0  0  0  0  0  0  0
  -10.4550   16.6850    1.6930 O   0  0  0  0  0  0  0  0  0  0  0  0
   -5.9690   14.9140   -0.7470 C   0  0  0  0  0  0  0  0  0  0  0  0
   -5.5640   14.6840    0.5610 C   0  0  0  0  0  0  0  0  0  0  0  0
   -5.1100   15.3040   -1.7590 C   0  0  0  0  0  0  0  0  0  0  0  0
   -4.2130   14.8530    0.8950 C   0  0  0  0  0  0  0  0  0  0  0  0
   -9.6840   16.3310    2.7600 C   0  0  0  0  0  0  0  0  0  0  0  0
   -3.7710   15.4620   -1.4120 C   0  0  0  0  0  0  0  0  0  0  0  0
   -3.3280   15.2410   -0.1060 C   0  0  0  0  0  0  0  0  0  0  0  0
   -8.6660   15.3930    2.7020 C   0  0  0  0  0  0  0  0  0  0  0  0
   -9.9580   16.9570    3.9770 C   0  0  0  0  0  0  0  0  0  0  0  0
   -7.9230   15.0540    3.8270 C   0  0  0  0  0  0  0  0  0  0  0  0
   -9.2180   16.6280    5.1250 C   0  0  0  0  0  0  0  0  0  0  0  0
   -9.5250   17.2790    6.3570 C   0  0  0  0  0  0  0  0  0  0  0  0
   -8.2000   15.6650    5.0380 C   0  0  0  0  0  0  0  0  0  0  0  0
   -9.7610   17.7680    7.3860 N   0  0  0  0  0  0  0  0  0  0  0  0
   -7.4770   15.3210    6.1470 O   0  0  0  0  0  0  0  0  0  0  0  0
  2  1  1  1
  2  3  1  0
  2  4  1  0
  3  5  1  0
  4  6  1  0
  4  7  2  0
  5  8  1  0
  6  9  1  0
  7 10  1  0
  9 10  2  0
  9 11  1  0
 10 12  1  0
  8 13  1  0
 11 14  2  0
 12 15  2  0
 14 15  1  0
 13 16  2  0
 13 17  1  0
 16 18  1  0
 17 19  2  0
 19 20  1  0
 18 21  2  0
 19 21  1  0
 20 22  3  0
 21 23  1  0
M  END
