mac-x0347-diamond-x0905_0_A
     RDKit          3D

 16 17  0  0  0  0  0  0  0  0999 V2000
    1.3360   14.5980   -3.6130 O   0  0  0  0  0  0  0  0  0  0  0  0
    0.6010   14.2030   -2.5570 C   0  0  0  0  0  0  0  0  0  0  0  0
    1.0790   13.6270   -1.6000 O   0  0  0  0  0  0  0  0  0  0  0  0
   -0.8330   14.5230   -2.6700 C   0  0  0  0  0  0  0  0  0  0  0  0
   -1.6900   14.5160   -1.5700 C   0  0  0  0  0  0  0  0  0  0  0  0
   -1.3580   14.8410   -3.9150 C   0  0  0  0  0  0  0  0  0  0  0  0
   -3.0430   14.8210   -1.7410 C   0  0  0  0  0  0  0  0  0  0  0  0
   -2.6620   15.1450   -4.1210 N   0  0  0  0  0  0  0  0  0  0  0  0
   -3.4670   15.1250   -3.0330 C   0  0  0  0  0  0  0  0  0  0  0  0
   -3.9760   14.8190   -0.6240 C   0  0  0  0  0  0  0  0  0  0  0  0
   -3.5640   15.1180    0.6870 C   0  0  0  0  0  0  0  0  0  0  0  0
   -5.3170   14.5160   -0.8590 C   0  0  0  0  0  0  0  0  0  0  0  0
   -4.4840   15.1060    1.7310 C   0  0  0  0  0  0  0  0  0  0  0  0
   -6.2240   14.5100    0.1810 C   0  0  0  0  0  0  0  0  0  0  0  0
   -7.5310   14.2260   -0.0640 O   0  0  0  0  0  0  0  0  0  0  0  0
   -5.8220   14.7970    1.4810 C   0  0  0  0  0  0  0  0  0  0  0  0
  1  2  1  0
  2  3  2  0
  2  4  1  0
  4  5  2  0
  4  6  1  0
  5  7  1  0
  6  8  2  0
  7  9  2  0
  8  9  1  0
  7 10  1  0
 10 11  2  0
 10 12  1  0
 11 13  1  0
 12 14  2  0
 14 15  1  0
 13 16  2  0
 14 16  1  0
M  END
