mac-x0319-diamond-x0855_0_A
     RDKit          3D

 17 18  0  0  0  0  0  0  0  0999 V2000
    0.5360   10.4210   -2.4930 O   0  0  0  0  0  0  0  0  0  0  0  0
    0.6190   11.7840   -2.5920 C   0  0  0  0  0  0  0  0  0  0  0  0
    0.6630   12.4450   -1.5550 O   0  0  0  0  0  0  0  0  0  0  0  0
    0.6070   12.3320   -4.0450 C   0  0  2  0  0  0  0  0  0  0  0  0
    0.2410   13.8000   -4.2320 C   0  0  0  0  0  0  0  0  0  0  0  0
   -0.3470   11.5090   -4.8190 N   0  0  0  0  0  0  0  0  0  0  0  0
    1.1110   14.9020   -4.0480 C   0  0  0  0  0  0  0  0  0  0  0  0
   -1.0880   14.0530   -4.6190 C   0  0  0  0  0  0  0  0  0  0  0  0
   -0.2120   10.7880   -5.9770 C   0  0  0  0  0  0  0  0  0  0  0  0
   -1.6110   11.4290   -4.3080 N   0  0  0  0  0  0  0  0  0  0  0  0
    0.6130   16.1940   -4.2570 C   0  0  0  0  0  0  0  0  0  0  0  0
   -1.5510   15.3440   -4.8200 C   0  0  0  0  0  0  0  0  0  0  0  0
   -1.4370   10.2130   -6.2010 C   0  0  0  0  0  0  0  0  0  0  0  0
   -2.2620   10.6370   -5.1620 C   0  0  0  0  0  0  0  0  0  0  0  0
    1.3620   17.3130   -4.0980 O   0  0  0  0  0  0  0  0  0  0  0  0
   -1.9570    9.0840   -7.5880 Br  0  0  0  0  0  0  0  0  0  0  0  0
   -0.6960   16.4130   -4.6390 C   0  0  0  0  0  0  0  0  0  0  0  0
  1  2  1  0
  2  3  2  0
  4  2  1  1
  4  5  1  0
  4  6  1  0
  5  7  2  0
  5  8  1  0
  6  9  1  0
  6 10  1  0
  7 11  1  0
  8 12  2  0
  9 13  2  0
 10 14  2  0
 13 14  1  0
 11 15  1  0
 13 16  1  0
 11 17  2  0
 12 17  1  0
M  END
