mac-x0226-mac-x0453
     RDKit          3D

 25 27  0  0  0  0  0  0  0  0999 V2000
    1.4940   12.3600   -2.1020 O   0  0  0  0  0  0  0  0  0  0  0  0
    0.4070   11.7150   -2.7260 C   0  0  0  0  0  0  0  0  0  0  0  0
    0.4350   10.3610   -2.3000 O   0  0  0  0  0  0  0  0  0  0  0  0
   -0.8710   12.3420   -2.1850 C   0  0  0  0  0  0  0  0  0  0  0  0
    0.5620   11.7530   -4.2100 C   0  0  0  0  0  0  0  0  0  0  0  0
   -0.6030   13.2330   -0.9740 C   0  0  0  0  0  0  0  0  0  0  0  0
    1.3920   12.5940   -4.9850 C   0  0  0  0  0  0  0  0  0  0  0  0
   -0.0650   10.9600   -5.1450 C   0  0  0  0  0  0  0  0  0  0  0  0
   -1.0370   14.6460   -1.2650 C   0  0  0  0  0  0  0  0  0  0  0  0
    1.2980   12.3430   -6.2910 N   0  0  0  0  0  0  0  0  0  0  0  0
    0.3980   11.3260   -6.3850 N   0  0  0  0  0  0  0  0  0  0  0  0
    0.0300   10.7490   -7.6290 C   0  0  0  0  0  0  0  0  0  0  0  0
   -2.4590   14.7750   -1.0440 N   0  0  0  0  0  0  0  0  0  0  0  0
   -1.1240    9.9650   -7.7070 C   0  0  0  0  0  0  0  0  0  0  0  0
    0.7870   10.9330   -8.7790 C   0  0  0  0  0  0  0  0  0  0  0  0
   -3.0700   14.6360    0.1660 C   0  0  0  0  0  0  0  0  0  0  0  0
   -3.4130   15.0480   -1.9780 C   0  0  0  0  0  0  0  0  0  0  0  0
   -1.4970    9.3880   -8.9220 C   0  0  0  0  0  0  0  0  0  0  0  0
    0.4220   10.3630   -9.9890 C   0  0  0  0  0  0  0  0  0  0  0  0
   -4.4050   14.8390   -0.0950 C   0  0  0  0  0  0  0  0  0  0  0  0
   -4.6040   15.0930   -1.4310 N   0  0  0  0  0  0  0  0  0  0  0  0
   -5.5490   14.8100    0.8510 C   0  0  0  0  0  0  0  0  0  0  0  0
   -0.7240    9.5870  -10.0630 C   0  0  0  0  0  0  0  0  0  0  0  0
   -6.0790   13.4240    1.2200 C   0  0  0  0  0  0  0  0  0  0  0  0
   -6.9720   13.5090    2.3770 N   0  0  0  0  0  0  0  0  0  0  0  0
  2  1  1  0
  2  3  1  0
  2  4  1  0
  2  5  1  0
  4  6  1  0
  5  7  1  0
  5  8  2  0
  6  9  1  0
  7 10  2  0
  8 11  1  0
 10 11  1  0
 11 12  1  0
  9 13  1  0
 12 14  2  0
 12 15  1  0
 13 16  1  0
 13 17  1  0
 14 18  1  0
 15 19  2  0
 16 20  2  0
 17 21  2  0
 20 21  1  0
 20 22  1  0
 18 23  2  0
 19 23  1  0
 22 24  1  0
 24 25  1  0
M  END
