mac-x0402-mac-x1494
     RDKit          3D

 16 18  0  0  0  0  0  0  0  0999 V2000
   -1.4190   14.4380   -1.4000 Cl  0  0  0  0  0  0  0  0  0  0  0  0
   -3.1560   14.3880   -1.9010 C   0  0  1  0  0  0  0  0  0  0  0  0
   -3.9210   13.1720   -1.4040 C   0  0  0  0  0  0  0  0  0  0  0  0
   -4.0470   15.5850   -1.4900 C   0  0  2  0  0  0  0  0  0  0  0  0
   -3.0120   14.3440   -3.4000 C   0  0  0  0  0  0  0  0  0  0  0  0
   -4.6910   15.7360   -0.1050 C   0  0  1  0  0  0  0  0  0  0  0  0
   -4.6500   13.5090   -0.1170 C   0  0  0  0  0  0  0  0  0  0  0  0
   -5.3110   15.4220   -2.2870 C   0  0  0  0  0  0  0  0  0  0  0  0
   -4.0630   14.6090   -4.1550 C   0  0  0  0  0  0  0  0  0  0  0  0
   -4.3640   12.9570    0.9370 O   0  0  0  0  0  0  0  0  0  0  0  0
   -5.6580   14.6140   -0.1280 C   0  0  1  0  0  0  0  0  0  0  0  0
   -3.9420   15.3180    1.5140 S   0  0  0  0  0  0  0  0  0  0  0  0
   -5.2980   14.9440   -3.5230 C   0  0  0  0  0  0  0  0  0  0  0  0
   -5.4770   14.5260    2.1160 C   0  0  2  0  0  0  0  0  0  0  0  0
   -6.4580   14.5990    1.0800 N   0  0  0  0  0  0  0  0  0  0  0  0
   -6.1620   15.2260    3.1510 N   0  0  0  0  0  0  0  0  0  0  0  0
  2  1  1  1
  2  3  1  0
  2  4  1  0
  2  5  1  0
  4  6  1  0
  3  7  1  0
  4  8  1  6
  5  9  2  0
  7 10  2  0
  6 11  1  0
  7 11  1  0
  6 12  1  1
  8 13  2  0
  9 13  1  0
 12 14  1  0
 11 15  1  1
 14 15  1  0
 14 16  1  1
M  END
