mac-x0326-diamond-x0950_0_A
     RDKit          3D

 17 18  0  0  0  0  0  0  0  0999 V2000
   -6.2650   15.4950   -1.4300 Cl  0  0  0  0  0  0  0  0  0  0  0  0
   -4.5680   15.2220   -1.3820 C   0  0  0  0  0  0  0  0  0  0  0  0
   -3.8570   15.1230   -2.5770 C   0  0  0  0  0  0  0  0  0  0  0  0
   -3.9320   15.1020   -0.1510 C   0  0  0  0  0  0  0  0  0  0  0  0
   -2.4710   14.8960   -2.5320 C   0  0  0  0  0  0  0  0  0  0  0  0
   -2.5570   14.8710   -0.0800 C   0  0  0  0  0  0  0  0  0  0  0  0
   -1.6420   14.7780   -3.6340 N   0  0  0  0  0  0  0  0  0  0  0  0
   -1.8430   14.7730   -1.2900 C   0  0  0  0  0  0  0  0  0  0  0  0
   -0.4000   14.5700   -3.2490 C   0  0  0  0  0  0  0  0  0  0  0  0
   -0.1590   14.5050   -1.5410 S   0  0  0  0  0  0  0  0  0  0  0  0
    0.7710   14.3910   -4.1840 C   0  0  0  0  0  0  0  0  0  0  0  0
    1.2370   12.9300   -4.3420 C   0  0  2  0  0  0  0  0  0  0  0  0
    0.9560   12.1470   -3.0500 C   0  0  0  0  0  0  0  0  0  0  0  0
    2.7390   12.9340   -4.5780 C   0  0  0  0  0  0  0  0  0  0  0  0
    0.6230   12.3080   -5.4770 O   0  0  0  0  0  0  0  0  0  0  0  0
    0.2680   10.9990   -3.2570 O   0  0  0  0  0  0  0  0  0  0  0  0
    1.3230   12.5130   -1.9510 O   0  0  0  0  0  0  0  0  0  0  0  0
  1  2  1  0
  2  3  2  0
  2  4  1  0
  3  5  1  0
  4  6  2  0
  5  7  1  0
  5  8  2  0
  6  8  1  0
  7  9  2  0
  8 10  1  0
  9 10  1  0
  9 11  1  0
 11 12  1  0
 12 13  1  0
 12 14  1  6
 12 15  1  0
 13 16  1  0
 13 17  2  0
M  END
