mac-x0188-diamond-x0626_0_A
     RDKit          3D

 21 22  0  0  0  0  0  0  0  0999 V2000
    1.4400   13.3400   -5.1800 C   0  0  0  0  0  0  0  0  0  0  0  0
    0.1740   13.6650   -4.5020 C   0  0  0  0  0  0  0  0  0  0  0  0
   -0.9540   13.6360   -5.2580 O   0  0  0  0  0  0  0  0  0  0  0  0
   -0.1410   14.0100   -3.2030 C   0  0  0  0  0  0  0  0  0  0  0  0
    0.8220   14.1420   -2.1400 C   0  0  0  0  0  0  0  0  0  0  0  0
   -2.0330   13.9540   -4.4670 N   0  0  0  0  0  0  0  0  0  0  0  0
   -1.5450   14.1740   -3.2290 C   0  0  0  0  0  0  0  0  0  0  0  0
    1.4310   15.1680   -1.9600 O   0  0  0  0  0  0  0  0  0  0  0  0
    1.0470   13.0970   -1.3110 O   0  0  0  0  0  0  0  0  0  0  0  0
   -2.4500   14.5120   -2.1370 C   0  0  0  0  0  0  0  0  0  0  0  0
   -3.7550   14.8640   -2.5080 C   0  0  0  0  0  0  0  0  0  0  0  0
   -2.0880   14.4820   -0.7460 C   0  0  0  0  0  0  0  0  0  0  0  0
   -0.7310   14.1480   -0.1470 C   0  0  0  0  0  0  0  0  0  0  0  0
   -4.6960   15.1520   -1.5320 C   0  0  0  0  0  0  0  0  0  0  0  0
   -3.0660   14.7720    0.1930 C   0  0  0  0  0  0  0  0  0  0  0  0
   -4.3430   15.0870   -0.1800 C   0  0  0  0  0  0  0  0  0  0  0  0
   -5.3380   15.3280    0.7380 N   0  0  0  0  0  0  0  0  0  0  0  0
   -6.5690   14.7750    0.4900 C   0  0  0  0  0  0  0  0  0  0  0  0
   -7.0130   14.5590   -0.6240 O   0  0  0  0  0  0  0  0  0  0  0  0
   -7.3480   14.4490    1.7430 C   0  0  0  0  0  0  0  0  0  0  0  0
   -8.8380   14.5690    1.4870 C   0  0  0  0  0  0  0  0  0  0  0  0
  1  2  1  0
  2  3  1  0
  2  4  2  0
  4  5  1  0
  3  6  1  0
  4  7  1  0
  6  7  2  0
  5  8  2  0
  5  9  1  0
  7 10  1  0
 10 11  2  0
 10 12  1  0
 12 13  1  0
 11 14  1  0
 12 15  2  0
 14 16  2  0
 15 16  1  0
 16 17  1  0
 17 18  1  0
 18 19  2  0
 18 20  1  0
 20 21  1  0
M  END
