mac-x0283-diamond-x1012_0_A
     RDKit          3D

 24 26  0  0  0  0  0  0  0  0999 V2000
   -6.9800   14.5760    2.6030 N   0  0  0  0  0  0  0  0  0  0  0  0
   -6.8360   14.6800    1.2710 C   0  0  0  0  0  0  0  0  0  0  0  0
   -7.8330   14.5630    0.3920 N   0  0  0  0  0  0  0  0  0  0  0  0
   -5.5970   14.9380    0.6380 C   0  0  0  0  0  0  0  0  0  0  0  0
   -7.2560   14.7450   -0.8510 O   0  0  0  0  0  0  0  0  0  0  0  0
   -5.9290   14.9680   -0.7020 C   0  0  0  0  0  0  0  0  0  0  0  0
   -4.2620   15.1500    1.0220 C   0  0  0  0  0  0  0  0  0  0  0  0
   -5.0260   15.1950   -1.7150 C   0  0  0  0  0  0  0  0  0  0  0  0
   -3.3240   15.3810    0.0230 C   0  0  0  0  0  0  0  0  0  0  0  0
   -3.7050   15.4020   -1.3210 C   0  0  0  0  0  0  0  0  0  0  0  0
   -2.6840   15.6510   -2.3580 C   0  0  0  0  0  0  0  0  0  0  0  0
   -3.2360   15.8320   -3.7640 C   0  0  0  0  0  0  0  0  0  0  0  0
   -2.1890   15.3710   -4.5370 N   0  0  0  0  0  0  0  0  0  0  0  0
   -1.1950   16.1100   -4.7350 C   0  0  0  0  0  0  0  0  0  0  0  0
   -1.1030   17.4050   -4.3160 N   0  0  0  0  0  0  0  0  0  0  0  0
   -0.1410   15.6090   -5.3430 N   0  0  0  0  0  0  0  0  0  0  0  0
   -0.3410   14.1720   -5.5640 C   0  0  0  0  0  0  0  0  0  0  0  0
    1.1120   15.8700   -4.6500 C   0  0  0  0  0  0  0  0  0  0  0  0
   -0.6890   13.5280   -4.2610 C   0  0  0  0  0  0  0  0  0  0  0  0
    1.5310   14.6590   -3.7940 C   0  0  0  0  0  0  0  0  0  0  0  0
    0.3070   13.9320   -3.1940 C   0  0  0  0  0  0  0  0  0  0  0  0
    0.6610   12.7080   -2.3900 C   0  0  0  0  0  0  0  0  0  0  0  0
    0.9070   11.6270   -3.1560 O   0  0  0  0  0  0  0  0  0  0  0  0
    0.7170   12.6670   -1.1790 O   0  0  0  0  0  0  0  0  0  0  0  0
  1  2  1  0
  2  3  2  0
  2  4  1  0
  3  5  1  0
  4  6  2  0
  5  6  1  0
  4  7  1  0
  6  8  1  0
  7  9  2  0
  8 10  2  0
  9 10  1  0
 10 11  1  0
 11 12  1  0
 12 13  1  0
 13 14  2  3
 14 15  1  0
 14 16  1  0
 16 17  1  0
 16 18  1  0
 17 19  1  0
 18 20  1  0
 19 21  1  0
 20 21  1  0
 21 22  1  0
 22 23  1  0
 22 24  2  0
M  END
