mac-x0373-diamond-x0662_0_A
     RDKit          3D

 33 36  0  0  0  0  0  0  0  0999 V2000
    0.0510   13.1330   -0.9670 O   0  0  0  0  0  0  0  0  0  0  0  0
   -0.0120   14.2080   -1.8290 C   0  0  0  0  0  0  0  0  0  0  0  0
    0.9700   14.9190   -1.9900 O   0  0  0  0  0  0  0  0  0  0  0  0
   -1.3820   14.3710   -2.5230 C   0  0  1  0  0  0  0  0  0  0  0  0
   -1.7870   13.1860   -3.3650 C   0  0  0  0  0  0  0  0  0  0  0  0
   -2.4890   14.7970   -1.5700 C   0  0  0  0  0  0  0  0  0  0  0  0
   -0.8450   12.7570   -4.2840 C   0  0  0  0  0  0  0  0  0  0  0  0
   -3.0030   12.4990   -3.2890 C   0  0  0  0  0  0  0  0  0  0  0  0
   -3.6860   15.3290   -2.0780 C   0  0  0  0  0  0  0  0  0  0  0  0
   -2.3280   14.6670   -0.1840 C   0  0  0  0  0  0  0  0  0  0  0  0
   -1.0470   11.6790   -5.1310 C   0  0  0  0  0  0  0  0  0  0  0  0
   -3.2420   11.4080   -4.1320 C   0  0  0  0  0  0  0  0  0  0  0  0
   -4.6990   15.7220   -1.2060 C   0  0  0  0  0  0  0  0  0  0  0  0
   -3.3420   15.0620    0.6780 C   0  0  0  0  0  0  0  0  0  0  0  0
   -2.2680   10.9960   -5.0540 C   0  0  0  0  0  0  0  0  0  0  0  0
   -4.5210   15.5850    0.1650 C   0  0  0  0  0  0  0  0  0  0  0  0
    0.1640   11.4120   -6.0170 C   0  0  2  0  0  0  0  0  0  0  0  0
    0.7930   12.5350   -6.3160 O   0  0  0  0  0  0  0  0  0  0  0  0
   -0.0590   10.5620   -7.2780 C   0  0  0  0  0  0  0  0  0  0  0  0
   -1.0280    9.5540   -7.3620 C   0  0  0  0  0  0  0  0  0  0  0  0
    0.7510   10.7980   -8.3980 C   0  0  0  0  0  0  0  0  0  0  0  0
   -1.1760    8.8130   -8.5310 C   0  0  0  0  0  0  0  0  0  0  0  0
    0.6170   10.0690   -9.5760 C   0  0  0  0  0  0  0  0  0  0  0  0
    1.4000   10.2590  -10.7330 N   0  0  0  0  0  0  0  0  0  0  0  0
   -0.3570    9.0700   -9.6330 C   0  0  0  0  0  0  0  0  0  0  0  0
    2.2370    9.3540  -11.3470 C   0  0  0  0  0  0  0  0  0  0  0  0
    2.4480    8.1990  -11.0060 O   0  0  0  0  0  0  0  0  0  0  0  0
    2.9290    9.9100  -12.5350 C   0  0  0  0  0  0  0  0  0  0  0  0
    2.7300   11.1740  -13.1600 C   0  0  0  0  0  0  0  0  0  0  0  0
    3.8930    9.2090  -13.1690 N   0  0  0  0  0  0  0  0  0  0  0  0
    4.2880   10.0170  -14.1640 N   0  0  0  0  0  0  0  0  0  0  0  0
    3.6220   11.2090  -14.2040 C   0  0  0  0  0  0  0  0  0  0  0  0
    5.3330    9.5720  -15.0500 C   0  0  0  0  0  0  0  0  0  0  0  0
  1  2  1  0
  2  3  2  0
  4  2  1  1
  4  5  1  0
  4  6  1  0
  5  7  2  0
  5  8  1  0
  6  9  2  0
  6 10  1  0
  7 11  1  0
  8 12  2  0
  9 13  1  0
 10 14  2  0
 11 15  2  0
 12 15  1  0
 13 16  2  0
 14 16  1  0
 11 17  1  0
 17 18  1  6
 17 19  1  0
 19 20  2  0
 19 21  1  0
 20 22  1  0
 21 23  2  0
 23 24  1  0
 22 25  2  0
 23 25  1  0
 24 26  1  0
 26 27  2  0
 26 28  1  0
 28 29  1  0
 28 30  2  0
 30 31  1  0
 29 32  2  0
 31 32  1  0
 31 33  1  0
M  CHG  1  18  -1
M  END
