mac-x0344-diamond-x0574_0_A
     RDKit          3D

 27 29  0  0  0  0  0  0  0  0999 V2000
    2.2330   13.0850   -5.1810 O   0  0  0  0  0  0  0  0  0  0  0  0
    1.4860   12.8440   -4.1080 C   0  0  0  0  0  0  0  0  0  0  0  0
    1.5940   13.4510   -3.0020 N   0  0  0  0  0  0  0  0  0  0  0  0
    0.4420   11.7400   -4.3000 C   0  0  0  0  0  0  0  0  0  0  0  0
    0.0930   11.1030   -3.3100 O   0  0  0  0  0  0  0  0  0  0  0  0
    0.0550   11.6420   -5.6090 N   0  0  0  0  0  0  0  0  0  0  0  0
    0.6950   13.0790   -1.9450 C   0  0  0  0  0  0  0  0  0  0  0  0
    0.9210   14.1040   -0.8480 C   0  0  0  0  0  0  0  0  0  0  0  0
   -0.7510   10.6510   -6.1820 C   0  0  0  0  0  0  0  0  0  0  0  0
    0.2370   13.6280    0.4330 C   0  0  0  0  0  0  0  0  0  0  0  0
   -0.4170    9.9890   -7.3600 C   0  0  0  0  0  0  0  0  0  0  0  0
   -1.9420   10.3270   -5.5230 C   0  0  0  0  0  0  0  0  0  0  0  0
   -0.0810   14.6560    1.3360 N   0  0  0  0  0  0  0  0  0  0  0  0
   -1.2700    9.0110   -7.8760 C   0  0  0  0  0  0  0  0  0  0  0  0
   -2.7930    9.3500   -6.0390 C   0  0  0  0  0  0  0  0  0  0  0  0
   -2.4570    8.6890   -7.2190 C   0  0  0  0  0  0  0  0  0  0  0  0
   -1.3030   14.7500    1.0030 C   0  0  0  0  0  0  0  0  0  0  0  0
   -2.3240   14.8430    1.7590 N   0  0  0  0  0  0  0  0  0  0  0  0
   -1.5340   14.6960   -0.6890 S   0  0  0  0  0  0  0  0  0  0  0  0
   -3.4230   14.8800    0.9400 C   0  0  0  0  0  0  0  0  0  0  0  0
   -3.1910   14.8080   -0.4260 C   0  0  0  0  0  0  0  0  0  0  0  0
   -4.7290   14.9750    1.3650 C   0  0  0  0  0  0  0  0  0  0  0  0
   -4.2130   14.8260   -1.3710 C   0  0  0  0  0  0  0  0  0  0  0  0
   -5.7640   14.9640    0.4700 C   0  0  0  0  0  0  0  0  0  0  0  0
   -5.5140   14.8990   -0.8940 C   0  0  0  0  0  0  0  0  0  0  0  0
   -7.0600   15.0100    0.8700 O   0  0  0  0  0  0  0  0  0  0  0  0
   -7.2520   14.6110    2.2290 C   0  0  0  0  0  0  0  0  0  0  0  0
  1  2  1  0
  2  3  2  3
  2  4  1  0
  4  5  2  0
  4  6  1  0
  3  7  1  0
  7  8  1  0
  6  9  1  0
  8 10  1  0
  9 11  2  0
  9 12  1  0
 10 13  1  0
 11 14  1  0
 12 15  2  0
 14 16  2  0
 15 16  1  0
 13 17  1  0
 17 18  2  0
 17 19  1  0
 18 20  1  0
 19 21  1  0
 20 21  2  0
 20 22  1  0
 21 23  1  0
 22 24  2  0
 23 25  2  0
 24 25  1  0
 24 26  1  0
 26 27  1  0
M  END
