mac-x0163-diamond-x0587_0_A
     RDKit          3D

 29 32  0  0  0  0  0  0  0  0999 V2000
   -3.5970   15.4620   -1.3250 C   0  0  0  0  0  0  0  0  0  0  0  0
   -4.7530   14.4840   -1.5540 C   0  0  0  0  0  0  0  0  0  0  0  0
   -4.3090   13.2240   -1.8330 F   0  0  0  0  0  0  0  0  0  0  0  0
   -2.4600   15.0560   -0.4090 C   0  0  0  0  0  0  0  0  0  0  0  0
   -5.3150   14.9080   -2.7320 F   0  0  0  0  0  0  0  0  0  0  0  0
   -2.5480   15.0920    0.9860 C   0  0  0  0  0  0  0  0  0  0  0  0
   -1.2300   14.6170   -0.9070 C   0  0  0  0  0  0  0  0  0  0  0  0
   -5.7730   14.5600   -0.4190 C   0  0  0  0  0  0  0  0  0  0  0  0
   -3.6890   15.5120    1.6720 N   0  0  0  0  0  0  0  0  0  0  0  0
   -0.2110   14.2620   -0.1160 N   0  0  0  0  0  0  0  0  0  0  0  0
   -1.5410   14.7270    1.7780 N   0  0  0  0  0  0  0  0  0  0  0  0
   -0.9740   14.5110   -2.2840 N   0  0  0  0  0  0  0  0  0  0  0  0
   -7.0860   14.3890   -0.6920 N   0  0  0  0  0  0  0  0  0  0  0  0
   -5.3040   14.8060    0.8180 N   0  0  0  0  0  0  0  0  0  0  0  0
   -0.4220   14.3350    1.1930 C   0  0  0  0  0  0  0  0  0  0  0  0
    0.3250   13.8410   -2.3640 C   0  0  0  0  0  0  0  0  0  0  0  0
   -1.0350   15.7770   -3.0350 C   0  0  0  0  0  0  0  0  0  0  0  0
   -7.9470   14.4870    0.3500 C   0  0  0  0  0  0  0  0  0  0  0  0
   -6.2090   14.8940    1.8160 C   0  0  0  0  0  0  0  0  0  0  0  0
    0.8010   13.7310   -3.8000 C   0  0  0  0  0  0  0  0  0  0  0  0
   -0.8850   15.5200   -4.5350 C   0  0  0  0  0  0  0  0  0  0  0  0
   -7.5550   14.7460    1.6430 C   0  0  0  0  0  0  0  0  0  0  0  0
   -8.4560   14.8810    2.7950 C   0  0  0  0  0  0  0  0  0  0  0  0
    2.2180   14.3200   -4.0270 C   0  0  0  0  0  0  0  0  0  0  0  0
    1.4490   12.3440   -4.0520 C   0  0  0  0  0  0  0  0  0  0  0  0
   -0.2440   14.1590   -4.8530 C   0  0  0  0  0  0  0  0  0  0  0  0
   -7.9150   14.9700    4.0460 N   0  0  0  0  0  0  0  0  0  0  0  0
   -9.6660   14.9310    2.6320 O   0  0  0  0  0  0  0  0  0  0  0  0
    2.5430   13.0600   -4.8500 C   0  0  0  0  0  0  0  0  0  0  0  0
  1  2  1  0
  2  3  1  0
  1  4  1  0
  2  5  1  0
  4  6  2  0
  4  7  1  0
  2  8  1  0
  6  9  1  0
  7 10  2  0
  6 11  1  0
  7 12  1  0
  8 13  2  0
  8 14  1  0
 10 15  1  0
 11 15  2  0
 12 16  1  0
 12 17  1  0
 13 18  1  0
 14 19  2  0
 20 16  1  0
 17 21  1  0
 18 22  2  0
 19 22  1  0
 22 23  1  0
 20 24  1  0
 20 25  1  0
 20 26  1  0
 21 26  1  0
 23 27  1  0
 23 28  2  0
 24 29  1  0
 25 29  1  0
M  END
