mac-x0137-diamond-x1012_0_A
     RDKit          3D

 22 24  0  0  0  0  0  0  0  0999 V2000
   -3.1400   12.9980   -4.2120 F   0  0  0  0  0  0  0  0  0  0  0  0
   -2.2730   13.8690   -4.8070 C   0  0  2  0  0  0  0  0  0  0  0  0
   -1.1310   13.0300   -5.3400 C   0  0  0  0  0  0  0  0  0  0  0  0
   -1.8670   14.9260   -3.7410 C   0  0  2  0  0  0  0  0  0  0  0  0
   -1.5830   16.3330   -4.4070 C   0  0  0  0  0  0  0  0  0  0  0  0
   -0.8410   14.4180   -2.6960 N   0  0  0  0  0  0  0  0  0  0  0  0
   -0.4110   12.3910   -4.1930 C   0  0  0  0  0  0  0  0  0  0  0  0
   -0.3020   16.8360   -4.3920 N   0  0  0  0  0  0  0  0  0  0  0  0
   -2.4600   17.0200   -4.9260 O   0  0  0  0  0  0  0  0  0  0  0  0
    0.1810   13.4510   -3.2820 C   0  0  2  0  0  0  0  0  0  0  0  0
   -1.1310   14.5330   -1.2860 C   0  0  0  0  0  0  0  0  0  0  0  0
    0.9780   12.6680   -2.2880 C   0  0  0  0  0  0  0  0  0  0  0  0
   -0.1670   14.3120   -0.3080 N   0  0  0  0  0  0  0  0  0  0  0  0
   -2.3450   14.8780   -0.7620 C   0  0  0  0  0  0  0  0  0  0  0  0
    0.5430   11.3860   -2.1890 O   0  0  0  0  0  0  0  0  0  0  0  0
    1.9080   13.0970   -1.6560 O   0  0  0  0  0  0  0  0  0  0  0  0
   -0.4410   14.3520    1.0440 C   0  0  0  0  0  0  0  0  0  0  0  0
   -2.5370   14.9730    0.7190 C   0  0  0  0  0  0  0  0  0  0  0  0
   -3.6530   15.2380   -1.2450 C   0  0  0  0  0  0  0  0  0  0  0  0
   -1.5570   14.6560    1.6000 N   0  0  0  0  0  0  0  0  0  0  0  0
   -3.7250   15.3880    1.0510 N   0  0  0  0  0  0  0  0  0  0  0  0
   -4.3770   15.5320   -0.1570 C   0  0  0  0  0  0  0  0  0  0  0  0
  2  1  1  1
  2  3  1  0
  2  4  1  0
  4  5  1  6
  4  6  1  0
  3  7  1  0
  5  8  1  0
  5  9  2  0
  6 10  1  0
  7 10  1  0
  6 11  1  0
 10 12  1  1
 11 13  1  0
 11 14  2  0
 12 15  1  0
 12 16  2  0
 13 17  1  0
 14 18  1  0
 14 19  1  0
 17 20  2  0
 18 20  1  0
 18 21  2  0
 19 22  2  0
 21 22  1  0
M  END
