mac-x0137-diamond-x0628_0_A
     RDKit          3D

 27 30  0  0  0  0  0  0  0  0999 V2000
   -1.3850   12.2580   -4.0510 O   0  0  0  0  0  0  0  0  0  0  0  0
   -1.9700   13.5050   -4.4300 C   0  0  2  0  0  0  0  0  0  0  0  0
   -0.9140   14.2480   -5.2140 C   0  0  0  0  0  0  0  0  0  0  0  0
   -1.0220   11.4720   -5.0530 C   0  0  0  0  0  0  0  0  0  0  0  0
   -2.3110   14.3830   -3.2220 C   0  0  0  0  0  0  0  0  0  0  0  0
   -1.6770   10.4100   -5.4690 N   0  0  0  0  0  0  0  0  0  0  0  0
    0.1110   11.6450   -5.8240 N   0  0  0  0  0  0  0  0  0  0  0  0
    1.1810   12.6460   -5.8100 C   0  0  0  0  0  0  0  0  0  0  0  0
   -1.1280   14.6130   -2.3490 N   0  0  0  0  0  0  0  0  0  0  0  0
    0.2720   14.6270   -4.3200 C   0  0  0  0  0  0  0  0  0  0  0  0
   -0.9070    9.9580   -6.5060 C   0  0  0  0  0  0  0  0  0  0  0  0
    0.1850   10.6780   -6.7590 N   0  0  0  0  0  0  0  0  0  0  0  0
   -1.2560    8.7590   -7.2870 C   0  0  0  0  0  0  0  0  0  0  0  0
    2.0040   12.8450   -4.5290 C   0  0  0  0  0  0  0  0  0  0  0  0
    0.1350   14.1280   -2.8880 C   0  0  0  0  0  0  0  0  0  0  0  0
   -1.3710   14.6270   -1.0010 C   0  0  0  0  0  0  0  0  0  0  0  0
    1.4440   12.1720   -3.3040 C   0  0  0  0  0  0  0  0  0  0  0  0
   -0.3620   14.3300   -0.1090 N   0  0  0  0  0  0  0  0  0  0  0  0
   -2.5540   14.9310   -0.4860 C   0  0  0  0  0  0  0  0  0  0  0  0
    0.6350   11.2540   -3.3060 O   0  0  0  0  0  0  0  0  0  0  0  0
    1.9330   12.6890   -2.1590 O   0  0  0  0  0  0  0  0  0  0  0  0
   -0.5910   14.3170    1.2360 C   0  0  0  0  0  0  0  0  0  0  0  0
   -2.7290   14.9360    0.9710 C   0  0  0  0  0  0  0  0  0  0  0  0
   -3.8320   15.3080   -0.9910 C   0  0  0  0  0  0  0  0  0  0  0  0
   -1.7120   14.5960    1.8160 N   0  0  0  0  0  0  0  0  0  0  0  0
   -3.9310   15.2980    1.3090 N   0  0  0  0  0  0  0  0  0  0  0  0
   -4.5750   15.5120    0.0960 C   0  0  0  0  0  0  0  0  0  0  0  0
  2  1  1  1
  2  3  1  0
  1  4  1  0
  2  5  1  0
  4  6  2  0
  4  7  1  0
  7  8  1  0
  5  9  1  0
  3 10  1  0
  6 11  1  0
  7 12  1  0
 11 12  2  0
 11 13  1  0
  8 14  1  0
  9 15  1  0
 10 15  1  0
  9 16  1  0
 14 17  1  0
 16 18  1  0
 16 19  2  0
 17 20  2  0
 17 21  1  0
 18 22  1  0
 19 23  1  0
 19 24  1  0
 22 25  2  0
 23 25  1  0
 23 26  2  0
 24 27  2  0
 26 27  1  0
M  END
