mac-x0132-diamond-x0628_0_A
     RDKit          3D

 25 27  0  0  0  0  0  0  0  0999 V2000
   -4.4080   15.1910    2.1220 N   0  0  0  0  0  0  0  0  0  0  0  0
   -5.3270   14.9730    1.0990 C   0  0  0  0  0  0  0  0  0  0  0  0
   -6.6030   14.7790    1.4690 N   0  0  0  0  0  0  0  0  0  0  0  0
   -4.9020   14.9680   -0.2200 C   0  0  0  0  0  0  0  0  0  0  0  0
   -5.8970   14.7560   -1.1750 C   0  0  0  0  0  0  0  0  0  0  0  0
   -7.4720   14.5830    0.4730 C   0  0  0  0  0  0  0  0  0  0  0  0
   -3.5660   15.1570   -0.6040 C   0  0  0  0  0  0  0  0  0  0  0  0
   -7.1890   14.5650   -0.8410 N   0  0  0  0  0  0  0  0  0  0  0  0
   -5.5030   14.7410   -2.5180 C   0  0  0  0  0  0  0  0  0  0  0  0
   -3.2020   15.1300   -1.9430 C   0  0  0  0  0  0  0  0  0  0  0  0
   -4.1660   14.9210   -2.9200 C   0  0  0  0  0  0  0  0  0  0  0  0
   -3.7650   14.8840   -4.3800 C   0  0  0  0  0  0  0  0  0  0  0  0
   -3.4620   13.4870   -4.9630 C   0  0  0  0  0  0  0  0  0  0  0  0
   -2.4070   12.6350   -4.2250 C   0  0  0  0  0  0  0  0  0  0  0  0
   -1.6020   11.7650   -5.1410 C   0  0  0  0  0  0  0  0  0  0  0  0
   -1.9750   10.6040   -5.6540 N   0  0  0  0  0  0  0  0  0  0  0  0
   -0.3330   12.0490   -5.5940 N   0  0  0  0  0  0  0  0  0  0  0  0
    0.5220   13.1850   -5.3300 C   0  0  0  0  0  0  0  0  0  0  0  0
   -0.9040   10.2200   -6.4130 C   0  0  0  0  0  0  0  0  0  0  0  0
    0.1150   11.0760   -6.4050 N   0  0  0  0  0  0  0  0  0  0  0  0
   -0.8690    8.9630   -7.1820 C   0  0  0  0  0  0  0  0  0  0  0  0
    1.6260   12.9500   -4.3090 C   0  0  0  0  0  0  0  0  0  0  0  0
    1.1440   12.2740   -3.0500 C   0  0  0  0  0  0  0  0  0  0  0  0
    0.4700   11.2660   -2.9400 O   0  0  0  0  0  0  0  0  0  0  0  0
    1.5640   12.9580   -1.9720 O   0  0  0  0  0  0  0  0  0  0  0  0
  1  2  1  0
  2  3  2  0
  2  4  1  0
  4  5  2  0
  3  6  1  0
  4  7  1  0
  5  8  1  0
  6  8  2  0
  5  9  1  0
  7 10  2  0
  9 11  2  0
 10 11  1  0
 11 12  1  0
 12 13  1  0
 13 14  1  0
 14 15  1  0
 15 16  2  0
 15 17  1  0
 17 18  1  0
 16 19  1  0
 17 20  1  0
 19 20  2  0
 19 21  1  0
 18 22  1  0
 22 23  1  0
 23 24  2  0
 23 25  1  0
M  END
