mac-x0348-diamond-x0722_0_A
     RDKit          3D

 28 30  0  0  0  0  0  0  0  0999 V2000
    0.4140   18.6950   -6.1160 C   0  0  0  0  0  0  0  0  0  0  0  0
   -0.0410   17.5120   -5.4320 N   0  0  0  0  0  0  0  0  0  0  0  0
    0.7300   16.7860   -4.5800 C   0  0  0  0  0  0  0  0  0  0  0  0
   -1.2880   16.9420   -5.5280 C   0  0  0  0  0  0  0  0  0  0  0  0
    0.0060   15.7210   -4.1140 C   0  0  0  0  0  0  0  0  0  0  0  0
   -1.2750   15.8110   -4.7110 C   0  0  0  0  0  0  0  0  0  0  0  0
   -2.4250   17.3050   -6.2520 C   0  0  0  0  0  0  0  0  0  0  0  0
    0.5300   14.6840   -3.1520 C   0  0  2  0  0  0  0  0  0  0  0  0
   -2.4270   15.0120   -4.6180 C   0  0  0  0  0  0  0  0  0  0  0  0
   -3.5450   16.4750   -6.1240 C   0  0  0  0  0  0  0  0  0  0  0  0
    0.5220   13.3010   -3.8170 C   0  0  0  0  0  0  0  0  0  0  0  0
   -0.1030   14.7200   -1.7310 C   0  0  0  0  0  0  0  0  0  0  0  0
   -3.5510   15.3580   -5.3320 C   0  0  0  0  0  0  0  0  0  0  0  0
    0.7660   12.2110   -2.8220 C   0  0  0  0  0  0  0  0  0  0  0  0
   -1.6390   14.5380   -1.6750 C   0  0  0  0  0  0  0  0  0  0  0  0
    1.4580   12.3710   -1.8440 O   0  0  0  0  0  0  0  0  0  0  0  0
    0.1530   11.0400   -3.0880 O   0  0  0  0  0  0  0  0  0  0  0  0
   -2.2860   14.7250   -0.3350 C   0  0  0  0  0  0  0  0  0  0  0  0
   -3.5950   15.1090    0.0010 C   0  0  0  0  0  0  0  0  0  0  0  0
   -1.6460   14.5390    0.8700 N   0  0  0  0  0  0  0  0  0  0  0  0
   -0.2850   14.1530    1.1530 C   0  0  0  0  0  0  0  0  0  0  0  0
   -4.7420   15.4550   -0.9000 C   0  0  0  0  0  0  0  0  0  0  0  0
   -2.4280   14.7570    1.9170 N   0  0  0  0  0  0  0  0  0  0  0  0
   -3.6010   15.1010    1.4240 C   0  0  0  0  0  0  0  0  0  0  0  0
   -4.6850   15.4110    2.3780 C   0  0  0  0  0  0  0  0  0  0  0  0
   -6.0250   14.6900   -0.6150 C   0  0  0  0  0  0  0  0  0  0  0  0
   -7.1630   15.1000   -0.8100 O   0  0  0  0  0  0  0  0  0  0  0  0
   -5.8380   13.4420   -0.0870 N   0  0  0  0  0  0  0  0  0  0  0  0
  1  2  1  0
  2  3  1  0
  2  4  1  0
  3  5  2  0
  4  6  2  0
  5  6  1  0
  4  7  1  0
  5  8  1  0
  6  9  1  0
  7 10  2  0
  8 11  1  6
  8 12  1  0
  9 13  2  0
 10 13  1  0
 11 14  1  0
 12 15  1  0
 14 16  2  0
 14 17  1  0
 15 18  1  0
 18 19  2  0
 18 20  1  0
 20 21  1  0
 19 22  1  0
 20 23  1  0
 19 24  1  0
 23 24  2  0
 24 25  1  0
 22 26  1  0
 26 27  2  0
 26 28  1  0
M  END
