mac-x0565-mac-x0354
     RDKit          3D

 28 31  0  0  0  0  0  0  0  0999 V2000
   -5.5060   15.0160    0.9390 O   0  0  0  0  0  0  0  0  0  0  0  0
   -5.9700   14.9150   -0.3220 C   0  0  0  0  0  0  0  0  0  0  0  0
   -7.1550   14.8290   -0.6080 O   0  0  0  0  0  0  0  0  0  0  0  0
   -4.8790   14.9240   -1.3250 C   0  0  0  0  0  0  0  0  0  0  0  0
   -3.5260   14.8210   -0.9240 C   0  0  0  0  0  0  0  0  0  0  0  0
   -5.2230   15.0370   -2.6830 C   0  0  0  0  0  0  0  0  0  0  0  0
   -2.5450   14.8380   -1.9060 C   0  0  0  0  0  0  0  0  0  0  0  0
   -4.2310   15.0570   -3.6610 C   0  0  0  0  0  0  0  0  0  0  0  0
   -2.9200   14.9620   -3.2410 C   0  0  0  0  0  0  0  0  0  0  0  0
   -1.1340   14.7540   -1.8010 N   0  0  0  0  0  0  0  0  0  0  0  0
   -0.4660   13.4480   -1.6700 C   0  0  0  0  0  0  0  0  0  0  0  0
   -1.8240   14.9820   -4.0520 O   0  0  0  0  0  0  0  0  0  0  0  0
   -0.8360   15.4160   -3.0770 C   0  0  0  0  0  0  0  0  0  0  0  0
    0.0880   13.0960   -2.9690 N   0  0  0  0  0  0  0  0  0  0  0  0
    0.3390   11.9240   -3.4070 C   0  0  0  0  0  0  0  0  0  0  0  0
    0.1830   10.7480   -2.7370 O   0  0  0  0  0  0  0  0  0  0  0  0
    0.7910   11.9040   -4.7750 C   0  0  0  0  0  0  0  0  0  0  0  0
    1.8500   12.6250   -5.3610 C   0  0  0  0  0  0  0  0  0  0  0  0
    0.2630   11.1650   -5.8310 C   0  0  0  0  0  0  0  0  0  0  0  0
    1.0020   11.4790   -6.9260 N   0  0  0  0  0  0  0  0  0  0  0  0
    1.9720   12.3640   -6.6540 N   0  0  0  0  0  0  0  0  0  0  0  0
   -0.8300   10.2180   -5.9070 C   0  0  0  0  0  0  0  0  0  0  0  0
    0.7970   10.9370   -8.2580 C   0  0  0  0  0  0  0  0  0  0  0  0
   -0.6120    8.9700   -6.5000 C   0  0  0  0  0  0  0  0  0  0  0  0
   -2.0870   10.5360   -5.3990 C   0  0  0  0  0  0  0  0  0  0  0  0
   -1.6470    8.0440   -6.5820 C   0  0  0  0  0  0  0  0  0  0  0  0
   -3.1240    9.6070   -5.4830 C   0  0  0  0  0  0  0  0  0  0  0  0
   -2.9030    8.3650   -6.0720 C   0  0  0  0  0  0  0  0  0  0  0  0
  1  2  1  0
  2  3  2  0
  2  4  1  0
  4  5  2  0
  4  6  1  0
  5  7  1  0
  6  8  2  0
  7  9  2  0
  8  9  1  0
  7 10  1  0
 10 11  1  0
  9 12  1  0
 10 13  1  0
 12 13  1  0
 11 14  1  0
 14 15  2  3
 15 16  1  0
 15 17  1  0
 17 18  1  0
 17 19  2  0
 19 20  1  0
 18 21  2  0
 20 21  1  0
 19 22  1  0
 20 23  1  0
 22 24  2  0
 22 25  1  0
 24 26  1  0
 25 27  2  0
 26 28  2  0
 27 28  1  0
M  END
