mac-x0398-diamond-x0465_0_A
     RDKit          3D

 26 27  0  0  0  0  0  0  0  0999 V2000
   -6.3230   14.8740    2.0890 N   0  0  0  0  0  0  0  0  0  0  0  0
   -5.5660   14.9450    0.9180 C   0  0  0  0  0  0  0  0  0  0  0  0
   -4.1750   14.9190    0.9570 C   0  0  0  0  0  0  0  0  0  0  0  0
   -6.2020   15.0430   -0.3190 C   0  0  0  0  0  0  0  0  0  0  0  0
   -5.4640   15.1080   -1.4950 C   0  0  0  0  0  0  0  0  0  0  0  0
   -3.4250   14.9840   -0.2200 C   0  0  0  0  0  0  0  0  0  0  0  0
   -6.2090   15.2020   -2.6440 O   0  0  0  0  0  0  0  0  0  0  0  0
   -4.0650   15.0770   -1.4760 C   0  0  0  0  0  0  0  0  0  0  0  0
   -3.2490   15.1350   -2.7290 C   0  0  0  0  0  0  0  0  0  0  0  0
   -3.7780   15.1310   -3.8300 O   0  0  0  0  0  0  0  0  0  0  0  0
   -1.9010   15.2020   -2.5440 O   0  0  0  0  0  0  0  0  0  0  0  0
   -1.2450   14.4050   -1.5300 C   0  0  0  0  0  0  0  0  0  0  0  0
    0.2220   14.1210   -1.8930 C   0  0  0  0  0  0  0  0  0  0  0  0
    0.3790   12.6800   -1.9810 N   0  0  0  0  0  0  0  0  0  0  0  0
    0.5590   12.0270   -3.0660 C   0  0  0  0  0  0  0  0  0  0  0  0
    0.6930   12.5150   -4.5260 C   0  0  1  0  0  0  0  0  0  0  0  0
    0.6260   10.6910   -2.8920 O   0  0  0  0  0  0  0  0  0  0  0  0
    2.0630   13.1860   -4.6880 C   0  0  0  0  0  0  0  0  0  0  0  0
    0.6280   11.5070   -5.5350 O   0  0  0  0  0  0  0  0  0  0  0  0
   -0.5120   10.7780   -5.7290 C   0  0  0  0  0  0  0  0  0  0  0  0
   -0.6520    9.7040   -6.6140 C   0  0  0  0  0  0  0  0  0  0  0  0
   -1.6190   11.1650   -4.9620 C   0  0  0  0  0  0  0  0  0  0  0  0
    0.3730    9.2930   -7.3760 F   0  0  0  0  0  0  0  0  0  0  0  0
   -1.8600    9.0190   -6.7370 C   0  0  0  0  0  0  0  0  0  0  0  0
   -2.8340   10.4810   -5.0830 C   0  0  0  0  0  0  0  0  0  0  0  0
   -2.9520    9.4040   -5.9730 C   0  0  0  0  0  0  0  0  0  0  0  0
  1  2  1  0
  2  3  2  0
  2  4  1  0
  4  5  2  0
  3  6  1  0
  5  7  1  0
  5  8  1  0
  6  8  2  0
  8  9  1  0
  9 10  2  0
  9 11  1  0
 11 12  1  0
 12 13  1  0
 13 14  1  0
 14 15  2  3
 15 16  1  0
 15 17  1  0
 16 18  1  1
 16 19  1  0
 19 20  1  0
 20 21  2  0
 20 22  1  0
 21 23  1  0
 21 24  1  0
 22 25  2  0
 24 26  2  0
 25 26  1  0
M  END
