mac-x0148-mac-x0277
     RDKit          3D

 30 34  0  0  0  0  0  0  0  0999 V2000
   -1.2280   18.7280   -5.2700 Cl  0  0  0  0  0  0  0  0  0  0  0  0
   -0.4860   17.2080   -4.9770 C   0  0  0  0  0  0  0  0  0  0  0  0
   -1.1940   16.0620   -5.2130 C   0  0  0  0  0  0  0  0  0  0  0  0
    0.8180   17.1410   -4.5080 C   0  0  0  0  0  0  0  0  0  0  0  0
   -2.8230   16.1950   -5.7960 Cl  0  0  0  0  0  0  0  0  0  0  0  0
   -0.5930   14.8090   -4.9870 C   0  0  0  0  0  0  0  0  0  0  0  0
    1.4100   15.8960   -4.2790 C   0  0  0  0  0  0  0  0  0  0  0  0
    0.7220   14.7210   -4.5170 C   0  0  0  0  0  0  0  0  0  0  0  0
    1.3890   13.3990   -4.2610 C   0  0  0  0  0  0  0  0  0  0  0  0
    1.1090   12.7400   -2.9020 C   0  0  0  0  0  0  0  0  0  0  0  0
    1.2840   11.3670   -3.0770 O   0  0  0  0  0  0  0  0  0  0  0  0
    2.0290   13.0610   -1.8920 O   0  0  0  0  0  0  0  0  0  0  0  0
   -0.3450   12.7050   -2.4220 C   0  0  2  0  0  0  0  0  0  0  0  0
   -0.9870   11.5320   -3.1690 C   0  0  0  0  0  0  0  0  0  0  0  0
   -1.1370   13.9670   -2.4490 N   0  0  0  0  0  0  0  0  0  0  0  0
   -2.4150   13.8370   -3.2740 C   0  0  1  0  0  0  0  0  0  0  0  0
   -1.2010   11.9440   -4.5890 C   0  0  0  0  0  0  0  0  0  0  0  0
   -1.3660   14.3840   -1.1410 C   0  0  0  0  0  0  0  0  0  0  0  0
   -2.9890   15.1060   -3.8920 C   0  0  0  0  0  0  0  0  0  0  0  0
   -2.3730   12.8720   -4.4880 C   0  0  2  0  0  0  0  0  0  0  0  0
   -0.2900   14.3720   -0.2680 N   0  0  0  0  0  0  0  0  0  0  0  0
   -2.5260   14.7770   -0.6190 C   0  0  0  0  0  0  0  0  0  0  0  0
   -2.6580   13.6840   -5.7170 C   0  0  0  0  0  0  0  0  0  0  0  0
   -3.3660   14.8330   -5.2600 O   0  0  0  0  0  0  0  0  0  0  0  0
   -0.4390   14.6430    1.0610 C   0  0  0  0  0  0  0  0  0  0  0  0
   -2.5930   15.1210    0.8180 C   0  0  0  0  0  0  0  0  0  0  0  0
   -3.8660   14.9830   -1.0580 C   0  0  0  0  0  0  0  0  0  0  0  0
   -1.5200   15.0080    1.6420 N   0  0  0  0  0  0  0  0  0  0  0  0
   -3.7730   15.5230    1.1760 N   0  0  0  0  0  0  0  0  0  0  0  0
   -4.5230   15.4230    0.0180 C   0  0  0  0  0  0  0  0  0  0  0  0
  1  2  1  0
  2  3  2  0
  2  4  1  0
  3  5  1  0
  3  6  1  0
  4  7  2  0
  6  8  2  0
  7  8  1  0
  8  9  1  0
  9 10  1  0
 10 11  1  0
 10 12  1  0
 13 10  1  6
 13 14  1  0
 13 15  1  0
 15 16  1  0
 14 17  1  0
 15 18  1  0
 16 19  1  6
 16 20  1  0
 20 17  1  6
 18 21  1  0
 18 22  2  0
 20 23  1  0
 19 24  1  0
 23 24  1  0
 21 25  1  0
 22 26  1  0
 22 27  1  0
 25 28  2  0
 26 28  1  0
 26 29  2  0
 27 30  2  0
 29 30  1  0
M  END
