mac-x0131-mac-x0341
     RDKit          3D

 23 26  0  0  0  0  0  0  0  0999 V2000
   -3.8840   15.1280   -3.7440 C   0  0  0  0  0  0  0  0  0  0  0  0
   -3.3280   14.3970   -2.5180 C   0  0  2  0  0  0  0  0  0  0  0  0
   -3.9880   14.6820   -1.0840 C   0  0  1  0  0  0  0  0  0  0  0  0
   -1.9190   14.8310   -2.4150 N   0  0  0  0  0  0  0  0  0  0  0  0
   -0.8370   14.5610   -3.3720 C   0  0  0  0  0  0  0  0  0  0  0  0
   -2.7400   14.8120   -0.2580 C   0  0  0  0  0  0  0  0  0  0  0  0
   -1.6050   14.8560   -1.0530 C   0  0  0  0  0  0  0  0  0  0  0  0
   -5.1970   15.6590   -0.9220 C   0  0  0  0  0  0  0  0  0  0  0  0
   -4.5430   13.3900   -0.4810 C   0  0  0  0  0  0  0  0  0  0  0  0
   -2.5550   14.8720    1.0880 C   0  0  0  0  0  0  0  0  0  0  0  0
   -0.3640   14.9320   -0.5760 N   0  0  0  0  0  0  0  0  0  0  0  0
   -0.6370   13.1130   -3.6130 C   0  0  0  0  0  0  0  0  0  0  0  0
   -6.4580   15.1230   -0.3090 N   0  0  0  0  0  0  0  0  0  0  0  0
   -5.1130   13.6350    0.8400 N   0  0  0  0  0  0  0  0  0  0  0  0
   -3.6280   14.8560    1.9600 N   0  0  0  0  0  0  0  0  0  0  0  0
   -1.3350   14.9450    1.6150 N   0  0  0  0  0  0  0  0  0  0  0  0
   -0.2990   14.9730    0.7580 C   0  0  0  0  0  0  0  0  0  0  0  0
    0.4480   12.2590   -3.5420 C   0  0  0  0  0  0  0  0  0  0  0  0
   -1.7490   12.4310   -3.9870 O   0  0  0  0  0  0  0  0  0  0  0  0
   -6.3950   14.2040    0.8010 C   0  0  1  0  0  0  0  0  0  0  0  0
   -6.7570   14.7670    2.0640 N   0  0  0  0  0  0  0  0  0  0  0  0
   -1.3900   11.1450   -4.1510 C   0  0  0  0  0  0  0  0  0  0  0  0
   -0.0600   10.9810   -3.8910 C   0  0  0  0  0  0  0  0  0  0  0  0
  2  1  1  6
  2  3  1  0
  2  4  1  0
  4  5  1  0
  3  6  1  0
  4  7  1  0
  6  7  2  0
  3  8  1  6
  3  9  1  0
  6 10  1  0
  7 11  1  0
  5 12  1  0
  8 13  1  0
  9 14  1  0
 10 15  1  0
 10 16  2  0
 11 17  2  0
 16 17  1  0
 12 18  2  0
 12 19  1  0
 13 20  1  0
 14 20  1  0
 20 21  1  1
 19 22  1  0
 18 23  1  0
 22 23  2  0
M  END
