mac-x0436-mac-x0392
     RDKit          3D

 27 29  0  0  0  0  0  0  0  0999 V2000
    0.7800   11.0830   -2.9360 O   0  0  0  0  0  0  0  0  0  0  0  0
    1.1120   12.3800   -3.0010 C   0  0  0  0  0  0  0  0  0  0  0  0
    1.0230   13.0160   -1.9080 N   0  0  0  0  0  0  0  0  0  0  0  0
    1.5290   12.8620   -4.3660 C   0  0  0  0  0  0  0  0  0  0  0  0
    0.3360   13.1700   -5.2630 C   0  0  0  0  0  0  0  0  0  0  0  0
    1.3520   14.4300   -1.9150 C   0  0  0  0  0  0  0  0  0  0  0  0
    0.2490   15.3090   -2.1810 O   0  0  0  0  0  0  0  0  0  0  0  0
   -0.4140   11.9120   -5.6200 C   0  0  0  0  0  0  0  0  0  0  0  0
   -0.9750   14.7440   -2.3950 C   0  0  0  0  0  0  0  0  0  0  0  0
   -1.7030   11.5810   -4.8560 C   0  0  0  0  0  0  0  0  0  0  0  0
    0.0580   11.1580   -6.5670 N   0  0  0  0  0  0  0  0  0  0  0  0
   -2.1170   12.3020   -3.9650 O   0  0  0  0  0  0  0  0  0  0  0  0
   -1.4070   14.3220   -3.4490 O   0  0  0  0  0  0  0  0  0  0  0  0
   -2.3440   10.4310   -5.2430 N   0  0  0  0  0  0  0  0  0  0  0  0
   -0.6460    9.9980   -6.9030 C   0  0  0  0  0  0  0  0  0  0  0  0
   -1.7790   14.7420   -1.1490 C   0  0  0  0  0  0  0  0  0  0  0  0
   -1.8360    9.6190   -6.2600 C   0  0  0  0  0  0  0  0  0  0  0  0
   -0.1390    9.1890   -7.9180 C   0  0  0  0  0  0  0  0  0  0  0  0
   -1.2090   14.3720    0.0790 C   0  0  0  0  0  0  0  0  0  0  0  0
   -3.1320   15.1270   -1.2230 C   0  0  0  0  0  0  0  0  0  0  0  0
    0.1310   13.9720    0.2340 N   0  0  0  0  0  0  0  0  0  0  0  0
   -0.8080    8.0210   -8.2900 C   0  0  0  0  0  0  0  0  0  0  0  0
   -2.5100    8.4570   -6.6230 C   0  0  0  0  0  0  0  0  0  0  0  0
   -3.8670   15.1340   -0.0610 C   0  0  0  0  0  0  0  0  0  0  0  0
   -2.0610   14.4200    1.1700 C   0  0  0  0  0  0  0  0  0  0  0  0
   -1.9920    7.6570   -7.6430 C   0  0  0  0  0  0  0  0  0  0  0  0
   -3.3580   14.7890    1.1340 N   0  0  0  0  0  0  0  0  0  0  0  0
  1  2  1  0
  2  3  2  3
  2  4  1  0
  4  5  1  0
  3  6  1  0
  6  7  1  0
  5  8  1  0
  7  9  1  0
  8 10  1  0
  8 11  2  0
 10 12  2  0
  9 13  2  0
 10 14  1  0
 11 15  1  0
  9 16  1  0
 14 17  1  0
 15 17  2  0
 15 18  1  0
 16 19  2  0
 16 20  1  0
 19 21  1  0
 18 22  2  0
 17 23  1  0
 20 24  2  0
 19 25  1  0
 22 26  1  0
 23 26  2  0
 24 27  1  0
 25 27  2  0
M  END
