mac-x1493-mac-x0159
     RDKit          3D

 29 33  0  0  0  0  0  0  0  0999 V2000
   -2.5720   13.2780   -2.2440 O   0  0  0  0  0  0  0  0  0  0  0  0
   -2.7870   14.5130   -2.7670 C   0  0  0  0  0  0  0  0  0  0  0  0
   -1.7170   14.9580   -3.4910 C   0  0  0  0  0  0  0  0  0  0  0  0
   -4.1420   14.7390   -2.2540 C   0  0  0  0  0  0  0  0  0  0  0  0
   -4.2710   14.6490   -0.8670 C   0  0  0  0  0  0  0  0  0  0  0  0
   -5.2990   14.9660   -2.9690 C   0  0  0  0  0  0  0  0  0  0  0  0
   -0.6020   13.9390   -3.4150 C   0  0  2  0  0  0  0  0  0  0  0  0
   -1.3150   16.1060   -4.2820 C   0  0  0  0  0  0  0  0  0  0  0  0
   -5.5050   14.7540   -0.2410 C   0  0  0  0  0  0  0  0  0  0  0  0
   -6.5320   15.0890   -2.3880 N   0  0  0  0  0  0  0  0  0  0  0  0
   -1.2130   12.7140   -2.8790 N   0  0  0  0  0  0  0  0  0  0  0  0
    0.5100   14.3860   -2.5450 N   0  0  0  0  0  0  0  0  0  0  0  0
    0.0190   16.4930   -4.3440 C   0  0  0  0  0  0  0  0  0  0  0  0
   -2.1870   16.8740   -5.0170 N   0  0  0  0  0  0  0  0  0  0  0  0
   -6.6280   14.9710   -1.0470 C   0  0  0  0  0  0  0  0  0  0  0  0
   -5.6210   14.6300    1.1500 C   0  0  0  0  0  0  0  0  0  0  0  0
   -1.6010   12.7290   -1.4690 C   0  0  2  0  0  0  0  0  0  0  0  0
    0.2850   14.0500   -1.1480 C   0  0  2  0  0  0  0  0  0  0  0  0
   -1.4990   17.8350   -5.6210 C   0  0  0  0  0  0  0  0  0  0  0  0
    0.1970   17.8620   -5.3500 S   0  0  0  0  0  0  0  0  0  0  0  0
   -3.0380   12.4580   -1.3790 N   0  0  0  0  0  0  0  0  0  0  0  0
   -2.0960   18.8690   -6.5060 C   0  0  0  0  0  0  0  0  0  0  0  0
   -7.8660   15.0530   -0.4160 C   0  0  0  0  0  0  0  0  0  0  0  0
   -6.8670   14.7070    1.7650 C   0  0  0  0  0  0  0  0  0  0  0  0
   -1.1550   13.9980   -0.7560 C   0  0  2  0  0  0  0  0  0  0  0  0
    0.8450   15.0280   -0.2520 N   0  0  0  0  0  0  0  0  0  0  0  0
   -7.9990   14.9190    0.9750 C   0  0  0  0  0  0  0  0  0  0  0  0
   -1.0690   14.0510    0.7010 N   0  0  0  0  0  0  0  0  0  0  0  0
   -0.0650   15.0720    0.8920 C   0  0  0  0  0  0  0  0  0  0  0  0
  1  2  1  0
  2  3  2  3
  2  4  1  0
  4  5  2  0
  4  6  1  0
  7  3  1  1
  3  8  1  0
  5  9  1  0
  6 10  2  0
  7 11  1  0
  7 12  1  0
  8 13  2  0
  8 14  1  0
  9 15  2  0
 10 15  1  0
  9 16  1  0
 11 17  1  0
 18 12  1  6
 14 19  2  0
 13 20  1  0
 19 20  1  0
 17 21  1  6
 19 22  1  0
 15 23  1  0
 16 24  2  0
 17 25  1  0
 18 25  1  0
 18 26  1  0
 23 27  2  0
 24 27  1  0
 25 28  1  1
 26 29  1  0
 28 29  1  0
M  END
