mac-x0206-mac-x0455
     RDKit          3D

 23 24  0  0  0  0  0  0  0  0999 V2000
   -3.0880   15.2310   -0.2640 N   0  0  0  0  0  0  0  0  0  0  0  0
   -4.2980   15.0840   -0.8820 C   0  0  0  0  0  0  0  0  0  0  0  0
   -4.4940   15.0280   -2.1600 N   0  0  0  0  0  0  0  0  0  0  0  0
   -5.5120   14.9590   -0.0050 C   0  0  0  0  0  0  0  0  0  0  0  0
   -3.3850   15.1190   -3.1070 C   0  0  0  0  0  0  0  0  0  0  0  0
   -6.8060   14.8010   -0.5210 C   0  0  0  0  0  0  0  0  0  0  0  0
   -5.3410   15.0000    1.3870 C   0  0  0  0  0  0  0  0  0  0  0  0
   -7.0200   14.7560   -1.8750 O   0  0  0  0  0  0  0  0  0  0  0  0
   -2.2010   14.3350   -2.5310 C   0  0  0  0  0  0  0  0  0  0  0  0
   -7.9070   14.6800    0.3340 C   0  0  0  0  0  0  0  0  0  0  0  0
   -6.4430   14.8810    2.2380 C   0  0  0  0  0  0  0  0  0  0  0  0
   -0.9460   14.1950   -3.4190 C   0  0  1  0  0  0  0  0  0  0  0  0
   -7.7220   14.7210    1.7150 C   0  0  0  0  0  0  0  0  0  0  0  0
   -0.8360   15.4050   -4.2080 O   0  0  0  0  0  0  0  0  0  0  0  0
    0.3020   14.2090   -2.4880 C   0  0  0  0  0  0  0  0  0  0  0  0
   -0.9240   12.9900   -4.3650 C   0  0  0  0  0  0  0  0  0  0  0  0
    0.8060   15.2410   -2.0720 O   0  0  0  0  0  0  0  0  0  0  0  0
    0.8260   13.0090   -2.1500 O   0  0  0  0  0  0  0  0  0  0  0  0
   -1.9790   12.0550   -4.3550 C   0  0  0  0  0  0  0  0  0  0  0  0
    0.1300   12.7670   -5.2720 C   0  0  0  0  0  0  0  0  0  0  0  0
   -1.9790   10.9450   -5.2050 C   0  0  0  0  0  0  0  0  0  0  0  0
    0.1290   11.6580   -6.1230 C   0  0  0  0  0  0  0  0  0  0  0  0
   -0.9240   10.7480   -6.0900 C   0  0  0  0  0  0  0  0  0  0  0  0
  1  2  1  0
  2  3  2  3
  2  4  1  0
  3  5  1  0
  4  6  2  0
  4  7  1  0
  6  8  1  0
  5  9  1  0
  6 10  1  0
  7 11  2  0
  9 12  1  0
 10 13  2  0
 11 13  1  0
 12 14  1  6
 12 15  1  0
 12 16  1  0
 15 17  2  0
 15 18  1  0
 16 19  2  0
 16 20  1  0
 19 21  1  0
 20 22  2  0
 21 23  2  0
 22 23  1  0
M  END
