mac-x0412-diamond-x0371_0_A
     RDKit          3D

 20 22  0  0  0  0  0  0  0  0999 V2000
   -7.8870   15.0940   -0.8230 O   0  0  0  0  0  0  0  0  0  0  0  0
   -6.8980   14.9380   -0.1170 C   0  0  0  0  0  0  0  0  0  0  0  0
   -6.9510   14.6990    1.2440 N   0  0  0  0  0  0  0  0  0  0  0  0
   -5.5310   14.9910   -0.6920 C   0  0  0  0  0  0  0  0  0  0  0  0
   -8.1480   14.1270    1.8030 C   0  0  0  0  0  0  0  0  0  0  0  0
   -4.4220   15.0480    0.1670 C   0  0  0  0  0  0  0  0  0  0  0  0
   -5.8650   14.9090    2.0730 C   0  0  0  0  0  0  0  0  0  0  0  0
   -5.3590   14.9800   -2.0740 C   0  0  0  0  0  0  0  0  0  0  0  0
   -8.1200   14.3420    3.2080 N   0  0  0  0  0  0  0  0  0  0  0  0
   -4.6270   15.0750    1.6020 C   0  0  0  0  0  0  0  0  0  0  0  0
   -3.1420   15.0800   -0.3720 C   0  0  0  0  0  0  0  0  0  0  0  0
   -4.0750   15.0170   -2.6050 C   0  0  0  0  0  0  0  0  0  0  0  0
   -8.7700   15.4320    3.7350 C   0  0  0  0  0  0  0  0  0  0  0  0
   -2.9710   15.0620   -1.7570 C   0  0  0  0  0  0  0  0  0  0  0  0
   -9.3880   16.2460    3.0480 O   0  0  0  0  0  0  0  0  0  0  0  0
   -8.6600   15.5020    5.1670 C   0  0  0  0  0  0  0  0  0  0  0  0
   -8.1080   14.4470    5.8340 O   0  0  0  0  0  0  0  0  0  0  0  0
   -9.0220   16.4790    6.0700 C   0  0  0  0  0  0  0  0  0  0  0  0
   -8.6680   15.9850    7.3510 C   0  0  0  0  0  0  0  0  0  0  0  0
   -8.1150   14.7450    7.1510 C   0  0  0  0  0  0  0  0  0  0  0  0
  1  2  2  0
  2  3  1  0
  2  4  1  0
  3  5  1  0
  4  6  2  0
  3  7  1  0
  4  8  1  0
  5  9  1  0
  6 10  1  0
  7 10  2  0
  6 11  1  0
  8 12  2  0
  9 13  1  0
 11 14  2  0
 12 14  1  0
 13 15  2  0
 13 16  1  0
 16 17  1  0
 16 18  2  0
 18 19  1  0
 17 20  1  0
 19 20  2  0
M  END
