mac-x0212-mac-x0567
     RDKit          3D

 18 19  0  0  0  0  0  0  0  0999 V2000
   -6.4690   12.7620    1.4250 C   0  0  0  0  0  0  0  0  0  0  0  0
   -6.9610   14.4360    1.0770 S   0  0  0  0  0  0  0  0  0  0  0  0
   -7.8400   14.8750    2.1410 O   0  0  0  0  0  0  0  0  0  0  0  0
   -7.3630   14.5270   -0.3090 O   0  0  0  0  0  0  0  0  0  0  0  0
   -5.4700   15.2040    1.3410 N   0  0  0  0  0  0  0  0  0  0  0  0
   -4.5260   15.0520    0.2780 C   0  0  0  0  0  0  0  0  0  0  0  0
   -3.1860   14.7450    0.5710 C   0  0  0  0  0  0  0  0  0  0  0  0
   -4.8420   15.1840   -1.0880 C   0  0  0  0  0  0  0  0  0  0  0  0
   -2.2050   14.5580   -0.4830 C   0  0  0  0  0  0  0  0  0  0  0  0
   -3.8660   15.0000   -2.1120 C   0  0  0  0  0  0  0  0  0  0  0  0
   -2.6210   14.5830    1.7790 N   0  0  0  0  0  0  0  0  0  0  0  0
   -2.5000   14.6690   -1.8670 C   0  0  0  0  0  0  0  0  0  0  0  0
   -1.0200   14.2690    0.1910 C   0  0  0  0  0  0  0  0  0  0  0  0
   -1.3340   14.3020    1.5180 N   0  0  0  0  0  0  0  0  0  0  0  0
   -1.5430   14.4760   -2.9780 C   0  0  0  0  0  0  0  0  0  0  0  0
    0.2490   13.9930   -0.1910 N   0  0  0  0  0  0  0  0  0  0  0  0
   -0.4230   14.0120   -2.9270 O   0  0  0  0  0  0  0  0  0  0  0  0
   -2.0590   14.8790   -4.1560 O   0  0  0  0  0  0  0  0  0  0  0  0
  1  2  1  0
  2  3  2  0
  2  4  2  0
  2  5  1  0
  5  6  1  0
  6  7  1  0
  6  8  2  0
  7  9  1  0
  8 10  1  0
  7 11  2  0
  9 12  1  0
 10 12  2  0
  9 13  2  0
 11 14  1  0
 13 14  1  0
 12 15  1  0
 13 16  1  0
 15 17  2  0
 15 18  1  0
M  END
