mac-x0439-mac-x0361
     RDKit          3D

 23 25  0  0  0  0  0  0  0  0999 V2000
   -3.3310   16.0020   -5.3940 Cl  0  0  0  0  0  0  0  0  0  0  0  0
   -1.8230   16.7990   -5.4590 C   0  0  0  0  0  0  0  0  0  0  0  0
   -0.6990   16.0210   -4.9530 C   0  0  2  0  0  0  0  0  0  0  0  0
   -1.6500   18.0210   -5.9810 C   0  0  0  0  0  0  0  0  0  0  0  0
   -0.6260   15.1040   -3.7990 C   0  0  0  0  0  0  0  0  0  0  0  0
    0.5640   16.7870   -4.7510 C   0  0  0  0  0  0  0  0  0  0  0  0
   -0.3130   18.5980   -6.0670 C   0  0  0  0  0  0  0  0  0  0  0  0
   -1.7500   14.3260   -3.4760 O   0  0  0  0  0  0  0  0  0  0  0  0
    0.6640   15.1750   -3.3350 C   0  0  0  0  0  0  0  0  0  0  0  0
    1.3740   16.2210   -3.9250 N   0  0  0  0  0  0  0  0  0  0  0  0
    0.7830   18.0410   -5.5070 C   0  0  0  0  0  0  0  0  0  0  0  0
    1.3340   14.3400   -2.2900 C   0  0  0  0  0  0  0  0  0  0  0  0
   -2.7720   14.5070   -2.4910 C   0  0  0  0  0  0  0  0  0  0  0  0
    2.6930   14.4580   -2.2230 O   0  0  0  0  0  0  0  0  0  0  0  0
    0.7250   13.5720   -1.5680 O   0  0  0  0  0  0  0  0  0  0  0  0
   -2.6030   14.4620   -1.0920 C   0  0  0  0  0  0  0  0  0  0  0  0
   -4.0860   14.7270   -2.9720 C   0  0  0  0  0  0  0  0  0  0  0  0
   -3.7010   14.6030   -0.2120 C   0  0  0  0  0  0  0  0  0  0  0  0
   -5.1790   14.8690   -2.0910 C   0  0  0  0  0  0  0  0  0  0  0  0
   -4.9970   14.7950   -0.7000 C   0  0  0  0  0  0  0  0  0  0  0  0
   -6.2040   14.9090    0.1890 C   0  0  0  0  0  0  0  0  0  0  0  0
   -6.0650   14.8910    1.5630 N   0  0  0  0  0  0  0  0  0  0  0  0
   -7.3310   14.9960   -0.2870 O   0  0  0  0  0  0  0  0  0  0  0  0
  1  2  1  0
  3  2  1  1
  2  4  2  0
  3  5  1  0
  3  6  1  0
  4  7  1  0
  5  8  1  0
  5  9  2  0
  6 10  2  0
  9 10  1  0
  6 11  1  0
  7 11  2  0
  9 12  1  0
  8 13  1  0
 12 14  1  0
 12 15  2  0
 13 16  2  0
 13 17  1  0
 16 18  1  0
 17 19  2  0
 18 20  2  0
 19 20  1  0
 20 21  1  0
 21 22  1  0
 21 23  2  0
M  END
