mac-x0148-diamond-x0471_0_A
     RDKit          3D

 29 33  0  0  0  0  0  0  0  0999 V2000
   -8.4300   13.7720    2.7080 N   0  0  0  0  0  0  0  0  0  0  0  0
   -8.7840   14.7890    3.5790 C   0  0  0  0  0  0  0  0  0  0  0  0
   -9.1760   15.9000    3.2160 O   0  0  0  0  0  0  0  0  0  0  0  0
   -8.3130   13.9490    1.2600 C   0  0  0  0  0  0  0  0  0  0  0  0
   -8.6650   14.4230    5.0570 C   0  0  0  0  0  0  0  0  0  0  0  0
   -6.9390   14.5510    0.8350 C   0  0  2  0  0  0  0  0  0  0  0  0
   -9.9310   13.7260    5.5600 C   0  0  0  0  0  0  0  0  0  0  0  0
   -8.3110   15.6400    5.9120 C   0  0  0  0  0  0  0  0  0  0  0  0
   -6.9940   15.2790   -0.4170 N   0  0  0  0  0  0  0  0  0  0  0  0
   -5.8440   13.6470    0.5150 N   0  0  0  0  0  0  0  0  0  0  0  0
   -4.7530   14.5600    0.0800 C   0  0  1  0  0  0  0  0  0  0  0  0
   -5.5750   15.6860   -0.5980 C   0  0  0  0  0  0  0  0  0  0  0  0
   -3.8770   14.9930    1.1970 N   0  0  0  0  0  0  0  0  0  0  0  0
   -3.8280   14.0490   -1.0580 C   0  0  0  0  0  0  0  0  0  0  0  0
   -2.5340   14.8440    0.7280 C   0  0  0  0  0  0  0  0  0  0  0  0
   -2.4610   14.3520   -0.5580 C   0  0  0  0  0  0  0  0  0  0  0  0
   -1.4680   15.1600    1.4570 N   0  0  0  0  0  0  0  0  0  0  0  0
   -1.2240   14.2120   -1.1450 C   0  0  0  0  0  0  0  0  0  0  0  0
   -1.1090   13.7110   -2.4770 N   0  0  0  0  0  0  0  0  0  0  0  0
   -0.1190   14.5390   -0.4480 N   0  0  0  0  0  0  0  0  0  0  0  0
   -0.2970   14.9860    0.8140 C   0  0  0  0  0  0  0  0  0  0  0  0
   -1.1950   14.6520   -3.6440 C   0  0  2  0  0  0  0  0  0  0  0  0
   -0.0240   12.7250   -2.5310 C   0  0  0  0  0  0  0  0  0  0  0  0
   -2.6010   15.2380   -3.9080 C   0  0  0  0  0  0  0  0  0  0  0  0
   -0.9400   13.9050   -4.9870 C   0  0  2  0  0  0  0  0  0  0  0  0
   -0.2230   11.8350   -3.7450 C   0  0  0  0  0  0  0  0  0  0  0  0
   -2.3350   13.6040   -5.4920 C   0  0  0  0  0  0  0  0  0  0  0  0
   -3.0860   14.7710   -5.1840 O   0  0  0  0  0  0  0  0  0  0  0  0
   -0.0350   12.6670   -4.9980 C   0  0  0  0  0  0  0  0  0  0  0  0
  1  2  1  0
  2  3  2  0
  1  4  1  0
  2  5  1  0
  6  4  1  6
  5  7  1  0
  5  8  1  0
  6  9  1  0
  6 10  1  0
 11 10  1  0
  9 12  1  0
 11 12  1  6
 11 13  1  0
 11 14  1  0
 13 15  1  0
 14 16  1  0
 15 16  2  0
 15 17  1  0
 16 18  1  0
 18 19  1  0
 18 20  2  0
 17 21  2  0
 20 21  1  0
 19 22  1  0
 19 23  1  0
 22 24  1  6
 22 25  1  0
 23 26  1  0
 25 27  1  1
 24 28  1  0
 27 28  1  0
 25 29  1  0
 26 29  1  0
M  END
