mac-x0263-mac-x0455
     RDKit          3D

 27 29  0  0  0  0  0  0  0  0999 V2000
  -11.5010   14.3240    2.4630 O   0  0  0  0  0  0  0  0  0  0  0  0
  -10.8180   15.4480    2.7810 C   0  0  0  0  0  0  0  0  0  0  0  0
  -11.2070   16.2250    3.6350 O   0  0  0  0  0  0  0  0  0  0  0  0
   -9.5620   15.6310    1.9730 C   0  0  0  0  0  0  0  0  0  0  0  0
   -8.9800   14.3220    1.4510 C   0  0  0  0  0  0  0  0  0  0  0  0
   -7.6190   14.5930    0.9140 C   0  0  0  0  0  0  0  0  0  0  0  0
   -7.3610   14.7660   -0.4240 N   0  0  0  0  0  0  0  0  0  0  0  0
   -6.5220   14.7090    1.6210 N   0  0  0  0  0  0  0  0  0  0  0  0
   -6.0180   15.0110   -0.5690 C   0  0  0  0  0  0  0  0  0  0  0  0
   -5.5190   14.9730    0.7270 C   0  0  0  0  0  0  0  0  0  0  0  0
   -5.2110   15.2520   -1.6790 C   0  0  0  0  0  0  0  0  0  0  0  0
   -4.1590   15.1920    0.9620 C   0  0  0  0  0  0  0  0  0  0  0  0
   -3.8400   15.4560   -1.4310 C   0  0  0  0  0  0  0  0  0  0  0  0
   -3.3300   15.4320   -0.1290 C   0  0  0  0  0  0  0  0  0  0  0  0
   -2.8840   15.6820   -2.5590 C   0  0  0  0  0  0  0  0  0  0  0  0
   -2.3080   14.2980   -2.8740 C   0  0  0  0  0  0  0  0  0  0  0  0
   -0.9500   14.2690   -3.5840 C   0  0  1  0  0  0  0  0  0  0  0  0
   -0.8620   15.4550   -4.3930 O   0  0  0  0  0  0  0  0  0  0  0  0
    0.2160   14.2730   -2.5570 C   0  0  0  0  0  0  0  0  0  0  0  0
   -0.8940   13.0220   -4.4710 C   0  0  0  0  0  0  0  0  0  0  0  0
    0.8360   15.2310   -2.1400 O   0  0  0  0  0  0  0  0  0  0  0  0
    0.5280   13.0310   -2.1110 O   0  0  0  0  0  0  0  0  0  0  0  0
   -1.9130   12.0500   -4.3980 C   0  0  0  0  0  0  0  0  0  0  0  0
    0.1590   12.8030   -5.3780 C   0  0  0  0  0  0  0  0  0  0  0  0
   -1.8820   10.9070   -5.1980 C   0  0  0  0  0  0  0  0  0  0  0  0
    0.1900   11.6590   -6.1770 C   0  0  0  0  0  0  0  0  0  0  0  0
   -0.8290   10.7120   -6.0880 C   0  0  0  0  0  0  0  0  0  0  0  0
  1  2  1  0
  2  3  2  0
  2  4  1  0
  4  5  1  0
  5  6  1  0
  6  7  1  0
  6  8  2  0
  7  9  1  0
  8 10  1  0
  9 10  2  0
  9 11  1  0
 10 12  1  0
 11 13  2  0
 12 14  2  0
 13 14  1  0
 13 15  1  0
 15 16  1  0
 16 17  1  0
 17 18  1  6
 17 19  1  0
 17 20  1  0
 19 21  2  0
 19 22  1  0
 20 23  2  0
 20 24  1  0
 23 25  1  0
 24 26  2  0
 25 27  2  0
 26 27  1  0
M  END
