mac-x0124-mac-x0337
     RDKit          3D

 21 23  0  0  0  0  0  0  0  0999 V2000
    0.5990   14.9170   -3.1620 C   0  0  0  0  0  0  0  0  0  0  0  0
   -0.6470   14.8690   -2.4430 N   0  0  0  0  0  0  0  0  0  0  0  0
   -1.8790   14.8800   -3.0260 C   0  0  0  0  0  0  0  0  0  0  0  0
   -0.7620   14.8070   -1.0770 C   0  0  0  0  0  0  0  0  0  0  0  0
   -2.8030   14.8280   -2.0200 C   0  0  0  0  0  0  0  0  0  0  0  0
   -2.0990   14.7830   -0.7700 C   0  0  0  0  0  0  0  0  0  0  0  0
    0.2370   14.7770   -0.1910 N   0  0  0  0  0  0  0  0  0  0  0  0
   -2.4110   14.7270    0.5920 C   0  0  0  0  0  0  0  0  0  0  0  0
   -0.2100   14.7220    1.0890 C   0  0  0  0  0  0  0  0  0  0  0  0
   -3.7870   14.7080    0.9370 N   0  0  0  0  0  0  0  0  0  0  0  0
   -1.4710   14.6900    1.5440 N   0  0  0  0  0  0  0  0  0  0  0  0
   -4.5380   14.7310   -0.3790 S   0  0  2  0  0  0  0  0  0  0  0  0
   -4.3290   15.6210   -1.5020 O   0  0  0  0  0  0  0  0  0  0  0  0
   -6.0290   15.2220    0.1480 N   0  0  0  0  0  0  0  0  0  0  0  0
   -4.7650   13.0810   -0.9780 C   0  0  0  0  0  0  0  0  0  0  0  0
   -3.8320   12.4550   -1.8140 C   0  0  0  0  0  0  0  0  0  0  0  0
   -5.9230   12.4260   -0.5840 C   0  0  0  0  0  0  0  0  0  0  0  0
   -4.0850   11.1530   -2.2570 C   0  0  0  0  0  0  0  0  0  0  0  0
   -6.1670   11.1360   -1.0280 C   0  0  0  0  0  0  0  0  0  0  0  0
   -5.2560   10.4930   -1.8640 C   0  0  0  0  0  0  0  0  0  0  0  0
   -5.5430    9.0950   -2.3340 C   0  0  0  0  0  0  0  0  0  0  0  0
  1  2  1  0
  2  3  1  0
  2  4  1  0
  3  5  2  0
  4  6  2  0
  5  6  1  0
  4  7  1  0
  6  8  1  0
  7  9  2  0
  8 10  1  0
  8 11  2  0
  9 11  1  0
 10 12  2  0
 12 13  2  0
 12 14  1  1
 12 15  1  0
 15 16  2  0
 15 17  1  0
 16 18  1  0
 17 19  2  0
 18 20  2  0
 19 20  1  0
 20 21  1  0
M  END
