mac-x0338-mac-x0231
     RDKit          3D

 25 27  0  0  0  0  0  0  0  0999 V2000
   -4.1210   15.2530    1.8420 N   0  0  0  0  0  0  0  0  0  0  0  0
   -5.1840   15.0980    1.0120 C   0  0  0  0  0  0  0  0  0  0  0  0
   -6.3290   14.9990    1.4340 O   0  0  0  0  0  0  0  0  0  0  0  0
   -4.8910   15.0360   -0.4390 C   0  0  0  0  0  0  0  0  0  0  0  0
   -3.5970   14.9650   -0.8420 N   0  0  0  0  0  0  0  0  0  0  0  0
   -5.9550   15.0440   -1.3190 C   0  0  0  0  0  0  0  0  0  0  0  0
   -3.4460   14.8920   -2.1930 C   0  0  0  0  0  0  0  0  0  0  0  0
   -5.7960   14.9690   -2.6650 N   0  0  0  0  0  0  0  0  0  0  0  0
   -4.5230   14.8870   -3.1070 C   0  0  0  0  0  0  0  0  0  0  0  0
   -4.2570   14.7760   -4.6070 C   0  0  0  0  0  0  0  0  0  0  0  0
   -2.8040   14.5970   -4.6630 C   0  0  0  0  0  0  0  0  0  0  0  0
   -1.9520   15.6980   -4.6520 C   0  0  0  0  0  0  0  0  0  0  0  0
   -2.3140   13.3000   -4.6890 C   0  0  0  0  0  0  0  0  0  0  0  0
   -0.5830   15.4750   -4.6240 C   0  0  0  0  0  0  0  0  0  0  0  0
   -0.9570   13.0840   -4.6640 C   0  0  0  0  0  0  0  0  0  0  0  0
   -0.1010   14.1760   -4.6110 C   0  0  0  0  0  0  0  0  0  0  0  0
    0.3670   16.5920   -4.5880 C   0  0  0  0  0  0  0  0  0  0  0  0
    0.0010   17.7560   -4.7070 O   0  0  0  0  0  0  0  0  0  0  0  0
    1.3380   13.9960   -4.5110 C   0  0  0  0  0  0  0  0  0  0  0  0
    1.6730   16.2330   -4.4150 N   0  0  0  0  0  0  0  0  0  0  0  0
    1.8490   12.6020   -4.4410 C   0  0  0  0  0  0  0  0  0  0  0  0
    2.1650   14.9700   -4.4030 N   0  0  0  0  0  0  0  0  0  0  0  0
    1.3210   12.0010   -3.1690 C   0  0  0  0  0  0  0  0  0  0  0  0
    0.6110   10.8730   -3.3660 O   0  0  0  0  0  0  0  0  0  0  0  0
    1.4690   12.4420   -2.0470 O   0  0  0  0  0  0  0  0  0  0  0  0
  1  2  1  0
  2  3  2  0
  2  4  1  0
  4  5  2  0
  4  6  1  0
  5  7  1  0
  6  8  2  0
  7  9  2  0
  8  9  1  0
  9 10  1  0
 10 11  1  0
 11 12  2  0
 11 13  1  0
 12 14  1  0
 13 15  2  0
 14 16  2  0
 15 16  1  0
 14 17  1  0
 17 18  2  0
 16 19  1  0
 17 20  1  0
 19 21  1  0
 19 22  2  0
 20 22  1  0
 21 23  1  0
 23 24  1  0
 23 25  2  0
M  END
