mac-x0348-diamond-x0895_1_A
     RDKit          3D

 25 27  0  0  0  0  0  0  0  0999 V2000
    0.5700   18.6740   -6.0450 C   0  0  0  0  0  0  0  0  0  0  0  0
    0.0380   17.4990   -5.4120 N   0  0  0  0  0  0  0  0  0  0  0  0
    0.7240   16.7250   -4.5380 C   0  0  0  0  0  0  0  0  0  0  0  0
   -1.2220   16.9980   -5.6040 C   0  0  0  0  0  0  0  0  0  0  0  0
   -0.0750   15.6830   -4.1450 C   0  0  0  0  0  0  0  0  0  0  0  0
   -1.3220   15.8470   -4.8260 C   0  0  0  0  0  0  0  0  0  0  0  0
   -2.2730   17.4510   -6.3950 C   0  0  0  0  0  0  0  0  0  0  0  0
    0.3160   14.6100   -3.1880 C   0  0  0  0  0  0  0  0  0  0  0  0
   -2.5280   15.1190   -4.8520 C   0  0  0  0  0  0  0  0  0  0  0  0
   -3.4550   16.7090   -6.4140 C   0  0  0  0  0  0  0  0  0  0  0  0
    0.6520   13.2460   -3.7920 C   0  0  0  0  0  0  0  0  0  0  0  0
   -3.5840   15.5590   -5.6530 C   0  0  0  0  0  0  0  0  0  0  0  0
    0.4900   12.1410   -2.7740 C   0  0  0  0  0  0  0  0  0  0  0  0
    0.4690   12.3370   -1.5130 N   0  0  0  0  0  0  0  0  0  0  0  0
    0.3570   10.9290   -3.3180 O   0  0  0  0  0  0  0  0  0  0  0  0
    0.6100   13.6500   -0.9350 C   0  0  0  0  0  0  0  0  0  0  0  0
   -0.1490   13.6650    0.3720 C   0  0  0  0  0  0  0  0  0  0  0  0
   -0.4140   15.0480    0.8270 C   0  0  0  0  0  0  0  0  0  0  0  0
   -1.6750   15.0200    1.5460 N   0  0  0  0  0  0  0  0  0  0  0  0
   -2.7970   14.8470    0.9380 C   0  0  0  0  0  0  0  0  0  0  0  0
   -2.9500   14.6450   -0.5640 C   0  0  0  0  0  0  0  0  0  0  0  0
   -4.0300   14.8070    1.4870 N   0  0  0  0  0  0  0  0  0  0  0  0
   -4.3300   15.0190   -0.6870 N   0  0  0  0  0  0  0  0  0  0  0  0
   -4.9680   14.8780    0.5190 C   0  0  0  0  0  0  0  0  0  0  0  0
   -6.1770   14.8190    0.6740 O   0  0  0  0  0  0  0  0  0  0  0  0
  1  2  1  0
  2  3  1  0
  2  4  1  0
  3  5  2  0
  4  6  2  0
  5  6  1  0
  4  7  1  0
  5  8  1  0
  6  9  1  0
  7 10  2  0
  8 11  1  0
  9 12  2  0
 10 12  1  0
 11 13  1  0
 13 14  2  3
 13 15  1  0
 14 16  1  0
 16 17  1  0
 17 18  1  0
 18 19  1  0
 19 20  2  3
 20 21  1  0
 20 22  1  0
 21 23  1  0
 22 24  1  0
 23 24  1  0
 24 25  2  0
M  END
