mac-x0159-mac-x0346
     RDKit          3D

 30 33  0  0  0  0  0  0  0  0999 V2000
   -3.8770   14.4410    0.8660 N   0  0  0  0  0  0  0  0  0  0  0  0
   -3.1040   13.5330    0.0490 C   0  0  2  0  0  0  0  0  0  0  0  0
   -1.6080   13.8840   -0.0710 C   0  0  1  0  0  0  0  0  0  0  0  0
   -3.6600   13.4500   -1.2790 N   0  0  0  0  0  0  0  0  0  0  0  0
   -2.6470   13.3290   -2.3300 C   0  0  0  0  0  0  0  0  0  0  0  0
   -1.4440   14.9850   -1.1240 C   0  0  2  0  0  0  0  0  0  0  0  0
   -0.9870   14.5170    1.1090 N   0  0  0  0  0  0  0  0  0  0  0  0
   -1.8430   14.5310   -2.4470 N   0  0  0  0  0  0  0  0  0  0  0  0
   -0.0510   15.2980   -0.8790 N   0  0  0  0  0  0  0  0  0  0  0  0
   -0.1170   15.5490    0.5590 C   0  0  0  0  0  0  0  0  0  0  0  0
   -2.5150   15.5360   -3.3130 C   0  0  2  0  0  0  0  0  0  0  0  0
   -3.5280   15.0010   -4.3560 C   0  0  0  0  0  0  0  0  0  0  0  0
   -1.4700   16.4780   -3.9300 C   0  0  0  0  0  0  0  0  0  0  0  0
   -4.8010   14.3640   -3.7540 C   0  0  0  0  0  0  0  0  0  0  0  0
   -0.2410   16.7990   -3.3820 C   0  0  0  0  0  0  0  0  0  0  0  0
   -1.7220   17.1050   -5.1520 N   0  0  0  0  0  0  0  0  0  0  0  0
   -5.5620   15.2800   -2.9490 O   0  0  0  0  0  0  0  0  0  0  0  0
   -0.7060   17.8730   -5.4940 C   0  0  0  0  0  0  0  0  0  0  0  0
    0.6040   17.8920   -4.3920 S   0  0  0  0  0  0  0  0  0  0  0  0
   -0.6420   18.6890   -6.7440 C   0  0  0  0  0  0  0  0  0  0  0  0
   -5.4100   15.3040   -1.5830 C   0  0  0  0  0  0  0  0  0  0  0  0
   -6.4180   14.7330   -0.7680 C   0  0  0  0  0  0  0  0  0  0  0  0
   -4.2930   15.8720   -0.9720 C   0  0  0  0  0  0  0  0  0  0  0  0
   -7.6780   14.0920   -1.2680 C   0  0  0  0  0  0  0  0  0  0  0  0
   -4.1460   15.8950    0.4140 C   0  0  0  0  0  0  0  0  0  0  0  0
   -6.2540   14.7540    0.6330 C   0  0  0  0  0  0  0  0  0  0  0  0
   -8.6740   13.8070   -0.3540 N   0  0  0  0  0  0  0  0  0  0  0  0
   -7.8350   13.8190   -2.4590 O   0  0  0  0  0  0  0  0  0  0  0  0
   -5.1250   15.3330    1.2160 C   0  0  0  0  0  0  0  0  0  0  0  0
   -8.9240   14.7760    0.6470 O   0  0  0  0  0  0  0  0  0  0  0  0
  2  1  1  1
  2  3  1  0
  2  4  1  0
  4  5  1  0
  3  6  1  0
  3  7  1  1
  5  8  1  0
  6  8  1  0
  6  9  1  6
  7 10  1  0
  9 10  1  0
  8 11  1  0
 11 12  1  6
 11 13  1  0
 12 14  1  0
 13 15  2  0
 13 16  1  0
 14 17  1  0
 16 18  2  0
 15 19  1  0
 18 19  1  0
 18 20  1  0
 17 21  1  0
 21 22  2  0
 21 23  1  0
 22 24  1  0
 23 25  2  0
 22 26  1  0
 24 27  1  0
 24 28  2  0
 25 29  1  0
 26 29  2  0
 27 30  1  0
M  END
