mac-x0213-mac-x0385
     RDKit          3D

 23 25  0  0  0  0  0  0  0  0999 V2000
    0.4070   11.4440   -3.8490 O   0  0  0  0  0  0  0  0  0  0  0  0
    0.5510   12.6450   -3.2790 C   0  0  0  0  0  0  0  0  0  0  0  0
    0.9530   12.7200   -2.0670 N   0  0  0  0  0  0  0  0  0  0  0  0
    0.2030   13.8350   -4.1650 C   0  0  0  0  0  0  0  0  0  0  0  0
    1.0990   13.9630   -1.3350 C   0  0  0  0  0  0  0  0  0  0  0  0
   -1.2640   14.2710   -4.0340 C   0  0  0  0  0  0  0  0  0  0  0  0
    1.0540   15.1060   -3.9590 C   0  0  0  0  0  0  0  0  0  0  0  0
    0.3120   13.6790   -0.0660 C   0  0  0  0  0  0  0  0  0  0  0  0
   -1.1820   15.6550   -4.6100 C   0  0  0  0  0  0  0  0  0  0  0  0
    0.1380   16.1300   -4.5640 C   0  0  0  0  0  0  0  0  0  0  0  0
   -0.0790   14.8150    0.7950 C   0  0  0  0  0  0  0  0  0  0  0  0
   -2.2070   16.4260   -5.1320 C   0  0  0  0  0  0  0  0  0  0  0  0
    0.4490   17.3920   -5.0420 C   0  0  0  0  0  0  0  0  0  0  0  0
   -1.8930   17.6970   -5.6180 C   0  0  0  0  0  0  0  0  0  0  0  0
   -0.5740   18.1730   -5.5700 C   0  0  0  0  0  0  0  0  0  0  0  0
   -1.4690   14.9790    0.4310 C   0  0  0  0  0  0  0  0  0  0  0  0
   -2.3330   15.2380    1.3860 N   0  0  0  0  0  0  0  0  0  0  0  0
   -1.7300   14.8470   -0.8790 N   0  0  0  0  0  0  0  0  0  0  0  0
   -3.5900   15.4050    0.9840 C   0  0  0  0  0  0  0  0  0  0  0  0
   -2.9980   15.0160   -1.2370 C   0  0  0  0  0  0  0  0  0  0  0  0
   -4.5060   15.6970    1.9910 N   0  0  0  0  0  0  0  0  0  0  0  0
   -3.9890   15.3060   -0.3400 C   0  0  0  0  0  0  0  0  0  0  0  0
   -5.3930   15.4980   -0.7960 C   0  0  0  0  0  0  0  0  0  0  0  0
  1  2  1  0
  2  3  2  3
  2  4  1  0
  3  5  1  0
  4  6  1  0
  4  7  1  0
  5  8  1  0
  6  9  1  0
  7 10  1  0
  9 10  2  0
  8 11  1  0
  9 12  1  0
 10 13  1  0
 12 14  2  0
 13 15  2  0
 14 15  1  0
 11 16  1  0
 16 17  2  0
 16 18  1  0
 17 19  1  0
 18 20  2  0
 19 21  1  0
 19 22  2  0
 20 22  1  0
 22 23  1  0
M  END
