mac-x0179-mac-x0333
     RDKit          3D

 27 30  0  0  0  0  0  0  0  0999 V2000
    1.5830   12.9660   -2.1880 O   0  0  0  0  0  0  0  0  0  0  0  0
    1.0100   12.1980   -3.1360 C   0  0  0  0  0  0  0  0  0  0  0  0
    0.6620   11.0500   -2.8960 O   0  0  0  0  0  0  0  0  0  0  0  0
    0.8320   12.8520   -4.5000 C   0  0  0  0  0  0  0  0  0  0  0  0
    0.0500   12.0470   -5.4240 N   0  0  0  0  0  0  0  0  0  0  0  0
    0.7130   11.4980   -6.4880 C   0  0  0  0  0  0  0  0  0  0  0  0
   -1.1520   11.4170   -5.2240 C   0  0  0  0  0  0  0  0  0  0  0  0
    1.7900   11.8060   -6.9220 O   0  0  0  0  0  0  0  0  0  0  0  0
   -2.0970   11.6030   -4.3790 N   0  0  0  0  0  0  0  0  0  0  0  0
   -0.0970   10.4190   -7.0200 C   0  0  0  0  0  0  0  0  0  0  0  0
   -1.2400   10.3560   -6.2490 C   0  0  0  0  0  0  0  0  0  0  0  0
   -2.1880   12.6010   -3.3100 C   0  0  0  0  0  0  0  0  0  0  0  0
    0.1390    9.5660   -8.0780 C   0  0  0  0  0  0  0  0  0  0  0  0
   -2.2220    9.4100   -6.5040 C   0  0  0  0  0  0  0  0  0  0  0  0
   -2.4890   14.0150   -3.8560 C   0  0  0  0  0  0  0  0  0  0  0  0
   -0.8390    8.6060   -8.3550 C   0  0  0  0  0  0  0  0  0  0  0  0
   -2.0100    8.5300   -7.5720 C   0  0  0  0  0  0  0  0  0  0  0  0
   -2.4950   15.0350   -2.8370 O   0  0  0  0  0  0  0  0  0  0  0  0
   -3.4650   15.0210   -1.8640 C   0  0  0  0  0  0  0  0  0  0  0  0
   -4.8410   15.0270   -2.0850 C   0  0  0  0  0  0  0  0  0  0  0  0
   -2.9710   14.9950   -0.5390 C   0  0  0  0  0  0  0  0  0  0  0  0
   -5.6710   15.0010   -0.9840 C   0  0  0  0  0  0  0  0  0  0  0  0
   -3.8360   14.9730    0.5620 C   0  0  0  0  0  0  0  0  0  0  0  0
   -5.1840   14.9740    0.2980 C   0  0  0  0  0  0  0  0  0  0  0  0
   -7.0310   14.9930   -1.0090 O   0  0  0  0  0  0  0  0  0  0  0  0
   -6.1900   14.9480    1.2120 O   0  0  0  0  0  0  0  0  0  0  0  0
   -7.2890   14.6060    0.3530 C   0  0  0  0  0  0  0  0  0  0  0  0
  1  2  1  0
  2  3  2  0
  2  4  1  0
  4  5  1  0
  5  6  1  0
  5  7  1  0
  6  8  2  0
  7  9  2  3
  6 10  1  0
  7 11  1  0
 10 11  2  0
  9 12  1  0
 10 13  1  0
 11 14  1  0
 12 15  1  0
 13 16  2  0
 14 17  2  0
 16 17  1  0
 15 18  1  0
 18 19  1  0
 19 20  2  0
 19 21  1  0
 20 22  1  0
 21 23  2  0
 22 24  2  0
 23 24  1  0
 22 25  1  0
 24 26  1  0
 25 27  1  0
 26 27  1  0
M  END
