mac-x0546-diamond-x0855_0_A
     RDKit          3D

 21 23  0  0  0  0  0  0  0  0999 V2000
   -4.4320   15.3440   -6.1180 C   0  0  0  0  0  0  0  0  0  0  0  0
   -3.5230   16.4420   -6.0880 O   0  0  0  0  0  0  0  0  0  0  0  0
   -2.3540   16.2450   -5.4130 C   0  0  0  0  0  0  0  0  0  0  0  0
   -1.8620   15.0550   -5.0130 C   0  0  0  0  0  0  0  0  0  0  0  0
   -1.6350   17.4910   -5.1470 C   0  0  0  0  0  0  0  0  0  0  0  0
   -0.5830   15.0050   -4.2580 C   0  0  2  0  0  0  0  0  0  0  0  0
   -0.3450   17.5190   -4.7790 C   0  0  0  0  0  0  0  0  0  0  0  0
    0.2740   16.1940   -4.6690 C   0  0  0  0  0  0  0  0  0  0  0  0
    0.5000   13.9710   -4.4250 C   0  0  0  0  0  0  0  0  0  0  0  0
    0.4360   12.4830   -4.2410 C   0  0  1  0  0  0  0  0  0  0  0  0
    1.5080   15.9380   -4.8860 N   0  0  0  0  0  0  0  0  0  0  0  0
    1.6210   14.5890   -4.7320 C   0  0  0  0  0  0  0  0  0  0  0  0
    0.4920   12.1310   -2.7650 C   0  0  0  0  0  0  0  0  0  0  0  0
   -0.6050   11.7360   -4.9550 N   0  0  0  0  0  0  0  0  0  0  0  0
    0.8920   12.9090   -1.9110 O   0  0  0  0  0  0  0  0  0  0  0  0
    0.0740   10.8970   -2.4140 O   0  0  0  0  0  0  0  0  0  0  0  0
   -0.3990   10.8270   -5.9610 C   0  0  0  0  0  0  0  0  0  0  0  0
   -1.9170   11.8820   -4.6410 N   0  0  0  0  0  0  0  0  0  0  0  0
   -1.6340   10.3570   -6.2930 C   0  0  0  0  0  0  0  0  0  0  0  0
   -2.5370   11.0310   -5.4650 C   0  0  0  0  0  0  0  0  0  0  0  0
   -2.0720    9.0780   -7.5720 Br  0  0  0  0  0  0  0  0  0  0  0  0
  1  2  1  0
  2  3  1  0
  3  4  2  0
  3  5  1  0
  6  4  1  6
  5  7  2  0
  6  8  1  0
  7  8  1  0
  6  9  1  0
  9 10  1  0
  8 11  2  0
  9 12  2  0
 11 12  1  0
 10 13  1  1
 10 14  1  0
 13 15  2  0
 13 16  1  0
 14 17  1  0
 14 18  1  0
 17 19  2  0
 18 20  2  0
 19 20  1  0
 19 21  1  0
M  END
