mac-x0472-mac-x0132
     RDKit          3D

 25 28  0  0  0  0  0  0  0  0999 V2000
   -2.8230   15.1690   -2.3910 O   0  0  0  0  0  0  0  0  0  0  0  0
   -2.0630   13.9400   -2.4200 S   0  0  0  0  0  0  0  0  0  0  0  0
   -1.2400   13.6650   -3.5700 O   0  0  0  0  0  0  0  0  0  0  0  0
   -1.1410   13.8930   -0.9530 N   0  0  0  0  0  0  0  0  0  0  0  0
   -3.2240   12.5560   -2.3140 C   0  0  0  0  0  0  0  0  0  0  0  0
   -2.0550   14.2870    0.0900 C   0  0  0  0  0  0  0  0  0  0  0  0
   -2.7390   11.2690   -2.5460 C   0  0  0  0  0  0  0  0  0  0  0  0
   -4.5930   12.7270   -2.0150 C   0  0  0  0  0  0  0  0  0  0  0  0
   -1.8200   14.7070    1.3270 N   0  0  0  0  0  0  0  0  0  0  0  0
   -3.6260   14.2020   -0.3280 S   0  0  0  0  0  0  0  0  0  0  0  0
   -3.6050   10.1760   -2.4810 C   0  0  0  0  0  0  0  0  0  0  0  0
   -5.4500   11.6290   -1.9460 C   0  0  0  0  0  0  0  0  0  0  0  0
   -4.0680   14.7640    1.1900 C   0  0  0  0  0  0  0  0  0  0  0  0
   -3.0400   14.9960    1.9940 N   0  0  0  0  0  0  0  0  0  0  0  0
   -4.9570   10.3560   -2.1800 C   0  0  0  0  0  0  0  0  0  0  0  0
   -5.5150   14.8000    1.0710 C   0  0  0  0  0  0  0  0  0  0  0  0
   -5.7880   14.9270   -0.2740 C   0  0  0  0  0  0  0  0  0  0  0  0
   -6.4540   14.6980    2.0350 N   0  0  0  0  0  0  0  0  0  0  0  0
   -7.1080   14.9190   -0.6400 C   0  0  0  0  0  0  0  0  0  0  0  0
   -7.7150   14.7110    1.5610 C   0  0  0  0  0  0  0  0  0  0  0  0
   -4.7780   15.0550   -1.2600 C   0  0  0  0  0  0  0  0  0  0  0  0
   -8.0870   14.8120    0.2660 N   0  0  0  0  0  0  0  0  0  0  0  0
   -7.3970   15.0170   -1.9920 C   0  0  0  0  0  0  0  0  0  0  0  0
   -5.0770   15.1520   -2.5980 C   0  0  0  0  0  0  0  0  0  0  0  0
   -6.4020   15.1260   -2.9630 C   0  0  0  0  0  0  0  0  0  0  0  0
  1  2  2  0
  2  3  2  0
  2  4  1  0
  2  5  1  0
  4  6  1  0
  5  7  2  0
  5  8  1  0
  6  9  2  0
  6 10  1  0
  7 11  1  0
  8 12  2  0
 10 13  1  0
  9 14  1  0
 13 14  2  0
 11 15  2  0
 12 15  1  0
 13 16  1  0
 16 17  1  0
 16 18  2  0
 17 19  2  0
 18 20  1  0
 17 21  1  0
 19 22  1  0
 20 22  2  0
 19 23  1  0
 21 24  2  0
 23 25  2  0
 24 25  1  0
M  END
