mac-x0190-mac-x0204
     RDKit          3D

 24 26  0  0  0  0  0  0  0  0999 V2000
   -9.2740   14.9920    2.3750 O   0  0  0  0  0  0  0  0  0  0  0  0
   -9.0900   14.4020    1.0940 C   0  0  0  0  0  0  0  0  0  0  0  0
   -7.6590   14.5660    0.7480 C   0  0  0  0  0  0  0  0  0  0  0  0
   -7.2390   14.9310   -0.5090 N   0  0  0  0  0  0  0  0  0  0  0  0
   -6.6360   14.4000    1.5490 N   0  0  0  0  0  0  0  0  0  0  0  0
   -5.8660   14.9960   -0.5030 C   0  0  0  0  0  0  0  0  0  0  0  0
   -5.5230   14.6570    0.7960 C   0  0  0  0  0  0  0  0  0  0  0  0
   -4.9150   15.3090   -1.4760 C   0  0  0  0  0  0  0  0  0  0  0  0
   -4.1840   14.6120    1.1730 C   0  0  0  0  0  0  0  0  0  0  0  0
   -3.5660   15.2540   -1.0790 C   0  0  0  0  0  0  0  0  0  0  0  0
   -3.1870   14.9020    0.2450 C   0  0  0  0  0  0  0  0  0  0  0  0
   -1.7520   14.8050    0.7450 C   0  0  0  0  0  0  0  0  0  0  0  0
   -0.8500   13.9590   -0.1640 C   0  0  0  0  0  0  0  0  0  0  0  0
   -0.4060   14.8270   -1.3360 C   0  0  0  0  0  0  0  0  0  0  0  0
    0.1320   14.1400   -2.5900 C   0  0  0  0  0  0  0  0  0  0  0  0
    0.5830   12.8380   -2.2560 O   0  0  0  0  0  0  0  0  0  0  0  0
    1.2750   14.8440   -3.0230 O   0  0  0  0  0  0  0  0  0  0  0  0
   -0.9380   14.0840   -3.6650 C   0  0  0  0  0  0  0  0  0  0  0  0
   -1.3820   15.2470   -4.3200 C   0  0  0  0  0  0  0  0  0  0  0  0
   -1.5360   12.8840   -4.0510 C   0  0  0  0  0  0  0  0  0  0  0  0
   -2.3710   15.1660   -5.2940 C   0  0  0  0  0  0  0  0  0  0  0  0
   -2.5010   12.7770   -4.9990 N   0  0  0  0  0  0  0  0  0  0  0  0
   -2.7850   16.3100   -5.9120 O   0  0  0  0  0  0  0  0  0  0  0  0
   -2.8980   13.9200   -5.5980 C   0  0  0  0  0  0  0  0  0  0  0  0
  1  2  1  0
  2  3  1  0
  3  4  1  0
  3  5  2  0
  4  6  1  0
  5  7  1  0
  6  7  2  0
  6  8  1  0
  7  9  1  0
  8 10  2  0
  9 11  2  0
 10 11  1  0
 11 12  1  0
 12 13  1  0
 13 14  1  0
 14 15  1  0
 15 16  1  0
 15 17  1  0
 15 18  1  0
 18 19  2  0
 18 20  1  0
 19 21  1  0
 20 22  2  0
 21 23  1  0
 21 24  2  0
 22 24  1  0
M  END
