mac-x0302-diamond-x0724_0_A
     RDKit          3D

 21 22  0  0  0  0  0  0  0  0999 V2000
    1.5950   14.2870   -3.6640 O   0  0  0  0  0  0  0  0  0  0  0  0
    0.5570   14.0970   -2.8180 C   0  0  0  0  0  0  0  0  0  0  0  0
    0.7380   13.5390   -1.7510 O   0  0  0  0  0  0  0  0  0  0  0  0
   -0.7680   14.6300   -3.3240 C   0  0  0  0  0  0  0  0  0  0  0  0
   -1.7620   14.6360   -2.2680 N   0  0  0  0  0  0  0  0  0  0  0  0
   -3.0470   15.0590   -2.5020 C   0  0  0  0  0  0  0  0  0  0  0  0
   -3.3280   15.7620   -3.4660 O   0  0  0  0  0  0  0  0  0  0  0  0
   -4.0770   14.5650   -1.4740 C   0  0  2  0  0  0  0  0  0  0  0  0
   -5.3410   15.4270   -1.5230 C   0  0  0  0  0  0  0  0  0  0  0  0
   -3.4710   14.3720   -0.1120 C   0  0  0  0  0  0  0  0  0  0  0  0
   -6.6020   14.7110   -1.0350 C   0  0  2  0  0  0  0  0  0  0  0  0
   -4.1360   14.4890    1.0240 C   0  0  0  0  0  0  0  0  0  0  0  0
   -7.7280   15.5520   -1.2220 O   0  0  0  0  0  0  0  0  0  0  0  0
   -5.5750   14.8510    1.1750 C   0  0  1  0  0  0  0  0  0  0  0  0
   -6.6280   14.3400    0.3290 N   0  0  0  0  0  0  0  0  0  0  0  0
   -6.1360   14.6130    2.5590 C   0  0  0  0  0  0  0  0  0  0  0  0
   -7.9370   14.4320    0.9990 C   0  0  0  0  0  0  0  0  0  0  0  0
   -7.6420   14.7960    2.4550 C   0  0  1  0  0  0  0  0  0  0  0  0
   -8.3940   13.9040    3.4520 C   0  0  0  0  0  0  0  0  0  0  0  0
   -8.8390   14.5990    4.6590 N   0  0  0  0  0  0  0  0  0  0  0  0
   -8.8160   13.7540    5.8450 C   0  0  0  0  0  0  0  0  0  0  0  0
  1  2  1  0
  2  3  2  0
  2  4  1  0
  4  5  1  0
  5  6  1  0
  6  7  2  0
  8  6  1  6
  8  9  1  0
  8 10  1  0
  9 11  1  0
 10 12  2  0
 11 13  1  1
 14 12  1  1
 11 15  1  0
 14 15  1  0
 14 16  1  0
 15 17  1  0
 16 18  1  0
 17 18  1  0
 18 19  1  1
 19 20  1  0
 20 21  1  0
M  END
