mac-x0576-mac-x0179
     RDKit          3D

 30 33  0  0  0  0  0  0  0  0999 V2000
    0.1400   14.2600    1.9770 N   0  0  0  0  0  0  0  0  0  0  0  0
   -0.8020   14.1960    0.9130 C   0  0  1  0  0  0  0  0  0  0  0  0
   -2.0310   14.5200    1.5570 N   0  0  0  0  0  0  0  0  0  0  0  0
   -0.5320   14.8530   -0.3020 N   0  0  0  0  0  0  0  0  0  0  0  0
   -1.4730   14.7380   -1.2860 C   0  0  0  0  0  0  0  0  0  0  0  0
   -3.1280   14.2310    0.6780 C   0  0  2  0  0  0  0  0  0  0  0  0
   -1.0530   14.8520   -2.5130 N   0  0  0  0  0  0  0  0  0  0  0  0
   -2.9520   14.4880   -0.8540 C   0  0  1  0  0  0  0  0  0  0  0  0
   -4.2820   14.8130    1.2900 N   0  0  0  0  0  0  0  0  0  0  0  0
    0.3540   15.1330   -2.8720 C   0  0  0  0  0  0  0  0  0  0  0  0
   -5.4160   15.0010    0.5670 C   0  0  0  0  0  0  0  0  0  0  0  0
   -3.8480   15.5730   -1.3260 N   0  0  0  0  0  0  0  0  0  0  0  0
   -6.5160   14.8440    1.0930 O   0  0  0  0  0  0  0  0  0  0  0  0
    1.3840   14.1810   -2.2340 C   0  0  0  0  0  0  0  0  0  0  0  0
   -5.2560   15.4000   -0.9000 C   0  0  0  0  0  0  0  0  0  0  0  0
    0.8620   12.8650   -1.9980 O   0  0  0  0  0  0  0  0  0  0  0  0
    0.7140   12.0230   -3.0570 C   0  0  0  0  0  0  0  0  0  0  0  0
    0.6030   10.8110   -2.9310 O   0  0  0  0  0  0  0  0  0  0  0  0
    0.6820   12.7190   -4.4170 C   0  0  0  0  0  0  0  0  0  0  0  0
    0.0450   11.9190   -5.4400 N   0  0  0  0  0  0  0  0  0  0  0  0
    0.7270   11.4560   -6.5160 C   0  0  0  0  0  0  0  0  0  0  0  0
   -1.0850   11.1880   -5.2140 C   0  0  0  0  0  0  0  0  0  0  0  0
    1.7910   11.8240   -6.9300 O   0  0  0  0  0  0  0  0  0  0  0  0
   -1.8910   11.2910   -4.3110 O   0  0  0  0  0  0  0  0  0  0  0  0
   -0.0630   10.3720   -7.0940 C   0  0  0  0  0  0  0  0  0  0  0  0
   -1.1760   10.2050   -6.2920 C   0  0  0  0  0  0  0  0  0  0  0  0
    0.1560    9.5930   -8.2120 C   0  0  0  0  0  0  0  0  0  0  0  0
   -2.1380    9.2470   -6.5590 C   0  0  0  0  0  0  0  0  0  0  0  0
   -0.8020    8.6150   -8.5060 C   0  0  0  0  0  0  0  0  0  0  0  0
   -1.9380    8.4450   -7.6860 C   0  0  0  0  0  0  0  0  0  0  0  0
  2  1  1  1
  2  3  1  0
  2  4  1  0
  4  5  1  0
  6  3  1  1
  5  7  2  3
  5  8  1  0
  6  8  1  0
  6  9  1  0
  7 10  1  0
  9 11  1  0
  8 12  1  1
 11 13  2  0
 10 14  1  0
 11 15  1  0
 12 15  1  0
 14 16  1  0
 16 17  1  0
 17 18  2  0
 17 19  1  0
 19 20  1  0
 20 21  1  0
 20 22  1  0
 21 23  2  0
 22 24  2  0
 21 25  1  0
 22 26  1  0
 25 26  2  0
 25 27  1  0
 26 28  1  0
 27 29  2  0
 28 30  2  0
 29 30  1  0
M  END
