mac-x0392-mac-x0338
     RDKit          3D

 17 18  0  0  0  0  0  0  0  0999 V2000
    0.5800   14.3770   -0.3300 N   0  0  0  0  0  0  0  0  0  0  0  0
   -0.8040   14.5360   -0.2850 C   0  0  0  0  0  0  0  0  0  0  0  0
   -1.4890   14.5960    0.9100 C   0  0  0  0  0  0  0  0  0  0  0  0
   -1.5890   14.6440   -1.4490 C   0  0  0  0  0  0  0  0  0  0  0  0
   -0.9030   14.5890   -2.7530 C   0  0  0  0  0  0  0  0  0  0  0  0
   -2.9940   14.8000   -1.3950 C   0  0  0  0  0  0  0  0  0  0  0  0
   -2.8290   14.7460    0.9990 N   0  0  0  0  0  0  0  0  0  0  0  0
   -1.4370   14.5180   -3.8410 O   0  0  0  0  0  0  0  0  0  0  0  0
    0.4320   14.6250   -2.6390 O   0  0  0  0  0  0  0  0  0  0  0  0
   -3.5730   14.8440   -0.1330 C   0  0  0  0  0  0  0  0  0  0  0  0
   -3.8600   14.9120   -2.5060 C   0  0  0  0  0  0  0  0  0  0  0  0
   -4.9330   14.9890   -0.0510 C   0  0  0  0  0  0  0  0  0  0  0  0
   -5.1980   15.0520   -2.4330 N   0  0  0  0  0  0  0  0  0  0  0  0
   -5.5940   15.0350    1.2470 C   0  0  0  0  0  0  0  0  0  0  0  0
   -5.7090   15.0900   -1.1920 C   0  0  0  0  0  0  0  0  0  0  0  0
   -4.8250   15.3720    2.2970 N   0  0  0  0  0  0  0  0  0  0  0  0
   -6.7820   14.7890    1.3850 O   0  0  0  0  0  0  0  0  0  0  0  0
  1  2  1  0
  2  3  2  0
  2  4  1  0
  4  5  1  0
  4  6  2  0
  3  7  1  0
  5  8  2  0
  5  9  1  0
  6 10  1  0
  7 10  2  0
  6 11  1  0
 10 12  1  0
 11 13  2  0
 12 14  1  0
 12 15  2  0
 13 15  1  0
 14 16  1  0
 14 17  2  0
M  END
