mac-x0565-mac-x0223
     RDKit          3D

 24 26  0  0  0  0  0  0  0  0999 V2000
   -5.9300   14.6990    1.0020 O   0  0  0  0  0  0  0  0  0  0  0  0
   -6.2920   14.6720   -0.2950 C   0  0  0  0  0  0  0  0  0  0  0  0
   -7.4500   14.6180   -0.6640 O   0  0  0  0  0  0  0  0  0  0  0  0
   -5.1500   14.7230   -1.2300 C   0  0  0  0  0  0  0  0  0  0  0  0
   -3.8440   14.8910   -0.7610 C   0  0  0  0  0  0  0  0  0  0  0  0
   -5.4160   14.6030   -2.6110 C   0  0  0  0  0  0  0  0  0  0  0  0
   -2.8560   14.9520   -1.7050 C   0  0  0  0  0  0  0  0  0  0  0  0
   -4.3780   14.6660   -3.5390 C   0  0  0  0  0  0  0  0  0  0  0  0
   -3.0900   14.8520   -3.0630 C   0  0  0  0  0  0  0  0  0  0  0  0
   -1.5460   15.1340   -1.4720 O   0  0  0  0  0  0  0  0  0  0  0  0
   -1.8130   15.0360   -3.8390 C   0  0  2  0  0  0  0  0  0  0  0  0
   -1.3930   15.9190   -2.6590 C   0  0  0  0  0  0  0  0  0  0  0  0
   -2.2080   15.9870   -4.9230 C   0  0  0  0  0  0  0  0  0  0  0  0
   -0.3790   14.4530   -3.9930 C   0  0  1  0  0  0  0  0  0  0  0  0
   -0.1360   13.0030   -4.4440 C   0  0  0  0  0  0  0  0  0  0  0  0
   -1.4610   17.1850   -4.4880 C   0  0  2  0  0  0  0  0  0  0  0  0
    0.4470   15.4870   -4.8560 C   0  0  0  0  0  0  0  0  0  0  0  0
    0.3460   12.1860   -3.2660 C   0  0  0  0  0  0  0  0  0  0  0  0
   -2.0640   18.3700   -4.9670 O   0  0  0  0  0  0  0  0  0  0  0  0
    0.0120   16.9930   -4.7790 C   0  0  1  0  0  0  0  0  0  0  0  0
    0.1970   17.6730   -6.0120 O   0  0  0  0  0  0  0  0  0  0  0  0
    0.1150   11.0160   -3.0430 O   0  0  0  0  0  0  0  0  0  0  0  0
    1.0980   12.9140   -2.4140 O   0  0  0  0  0  0  0  0  0  0  0  0
    1.2620   18.5790   -5.9190 C   0  0  0  0  0  0  0  0  0  0  0  0
  1  2  1  0
  2  3  2  0
  2  4  1  0
  4  5  2  0
  4  6  1  0
  5  7  1  0
  6  8  2  0
  7  9  2  0
  8  9  1  0
  7 10  1  0
  9 11  1  0
 10 12  1  0
 11 12  1  1
 11 13  1  0
 11 14  1  0
 14 15  1  6
 13 16  1  0
 14 17  1  0
 15 18  1  0
 16 19  1  6
 16 20  1  0
 17 20  1  0
 20 21  1  6
 18 22  2  0
 18 23  1  0
 21 24  1  0
M  END
