mac-x0564-mac-x0303
     RDKit          3D

 21 24  0  0  0  0  0  0  0  0999 V2000
    0.6180   13.4360   -1.0030 O   0  0  0  0  0  0  0  0  0  0  0  0
   -0.0840   13.8840   -1.9000 C   0  0  0  0  0  0  0  0  0  0  0  0
    0.2940   13.7410   -3.2150 N   0  0  0  0  0  0  0  0  0  0  0  0
   -1.3950   14.6270   -1.6890 C   0  0  1  0  0  0  0  0  0  0  0  0
   -2.2840   14.4440   -2.8800 C   0  0  2  0  0  0  0  0  0  0  0  0
   -0.2310   14.5730   -4.2590 C   0  0  0  0  0  0  0  0  0  0  0  0
   -2.2900   14.2780   -0.6160 O   0  0  0  0  0  0  0  0  0  0  0  0
   -1.6810   14.6510   -4.2060 N   0  0  0  0  0  0  0  0  0  0  0  0
   -3.3680   15.2150   -0.8620 C   0  0  1  0  0  0  0  0  0  0  0  0
   -3.3950   15.3720   -2.4160 C   0  0  2  0  0  0  0  0  0  0  0  0
   -4.6840   15.1820   -3.1430 C   0  0  0  0  0  0  0  0  0  0  0  0
   -4.7770   14.9920   -0.2100 C   0  0  1  0  0  0  0  0  0  0  0  0
   -5.8180   14.8310   -2.5640 C   0  0  0  0  0  0  0  0  0  0  0  0
   -5.9040   14.5370   -1.1150 C   0  0  2  0  0  0  0  0  0  0  0  0
   -5.2090   14.0200    0.8300 N   0  0  0  0  0  0  0  0  0  0  0  0
   -6.5250   14.7050    1.0430 C   0  0  1  0  0  0  0  0  0  0  0  0
   -6.9690   15.1200   -0.3370 N   0  0  0  0  0  0  0  0  0  0  0  0
   -8.0110   14.1590    2.1630 S   0  0  0  0  0  0  0  0  0  0  0  0
   -7.4510   12.7710    2.9140 N   0  0  0  0  0  0  0  0  0  0  0  0
   -8.1550   15.1290    3.2290 O   0  0  0  0  0  0  0  0  0  0  0  0
   -9.1690   13.8070    1.3700 O   0  0  0  0  0  0  0  0  0  0  0  0
  1  2  2  0
  2  3  1  0
  2  4  1  0
  4  5  1  0
  3  6  1  0
  4  7  1  1
  5  8  1  6
  6  8  1  0
  9  7  1  6
  5 10  1  0
  9 10  1  0
 10 11  1  6
  9 12  1  0
 11 13  2  0
 12 14  1  0
 14 13  1  6
 12 15  1  1
 15 16  1  0
 14 17  1  0
 16 17  1  0
 16 18  1  6
 18 19  1  0
 18 20  2  0
 18 21  2  0
M  END
