mac-x0510-mac-x0345
     RDKit          3D

 13 14  0  0  0  0  0  0  0  0999 V2000
   -6.2810   14.9370    0.3530 O   0  0  0  0  0  0  0  0  0  0  0  0
   -5.0690   14.9860    0.1240 C   0  0  0  0  0  0  0  0  0  0  0  0
   -4.5750   15.0800   -1.2090 N   0  0  0  0  0  0  0  0  0  0  0  0
   -4.1220   14.9450    1.1390 N   0  0  0  0  0  0  0  0  0  0  0  0
   -5.5130   15.3810   -2.2750 N   0  0  0  0  0  0  0  0  0  0  0  0
   -4.7270   15.1210    2.9020 Br  0  0  0  0  0  0  0  0  0  0  0  0
   -2.7810   14.8250    0.8470 C   0  0  0  0  0  0  0  0  0  0  0  0
   -3.2210   15.0530   -1.5650 C   0  0  0  0  0  0  0  0  0  0  0  0
   -2.8090   15.1770   -2.7100 O   0  0  0  0  0  0  0  0  0  0  0  0
   -2.3560   14.8760   -0.4460 C   0  0  0  0  0  0  0  0  0  0  0  0
   -1.7300   14.6500    1.7040 N   0  0  0  0  0  0  0  0  0  0  0  0
   -0.9980   14.7330   -0.4000 N   0  0  0  0  0  0  0  0  0  0  0  0
   -0.6640   14.6010    0.9230 C   0  0  0  0  0  0  0  0  0  0  0  0
  1  2  2  0
  2  3  1  0
  2  4  1  0
  3  5  1  0
  4  6  1  0
  4  7  1  0
  3  8  1  0
  8  9  2  0
  7 10  2  0
  8 10  1  0
  7 11  1  0
 10 12  1  0
 11 13  2  0
 12 13  1  0
M  END
