mac-x0305-mac-x0132
     RDKit          3D

 16 17  0  0  0  0  0  0  0  0999 V2000
    0.4730   13.1590   -0.4690 O   0  0  0  0  0  0  0  0  0  0  0  0
   -0.2770   13.9670   -1.2760 C   0  0  0  0  0  0  0  0  0  0  0  0
    0.1660   14.5930   -2.2290 O   0  0  0  0  0  0  0  0  0  0  0  0
   -1.7410   13.9470   -0.8440 C   0  0  1  0  0  0  0  0  0  0  0  0
   -2.0360   14.8670    0.3550 C   0  0  1  0  0  0  0  0  0  0  0  0
   -2.6260   14.2720   -1.9910 N   0  0  0  0  0  0  0  0  0  0  0  0
   -0.8980   15.5850    0.8330 O   0  0  0  0  0  0  0  0  0  0  0  0
   -3.1730   15.8270   -0.0540 C   0  0  0  0  0  0  0  0  0  0  0  0
   -4.0020   14.0380   -1.5230 C   0  0  0  0  0  0  0  0  0  0  0  0
   -4.4790   15.0490   -0.4540 C   0  0  1  0  0  0  0  0  0  0  0  0
   -5.0080   14.4180    0.8690 C   0  0  1  0  0  0  0  0  0  0  0  0
   -5.6560   15.8090   -1.0710 C   0  0  0  0  0  0  0  0  0  0  0  0
   -4.4120   15.1000    1.9890 N   0  0  0  0  0  0  0  0  0  0  0  0
   -6.9520   15.1020   -1.0030 N   0  0  0  0  0  0  0  0  0  0  0  0
   -6.3920   14.6120    1.2680 N   0  0  0  0  0  0  0  0  0  0  0  0
   -7.3940   14.5410    0.2500 C   0  0  0  0  0  0  0  0  0  0  0  0
  1  2  1  0
  2  3  2  0
  4  2  1  6
  4  5  1  0
  4  6  1  0
  5  7  1  6
  5  8  1  0
  6  9  1  0
 10  8  1  1
  9 10  1  0
 10 11  1  0
 10 12  1  0
 11 13  1  1
 12 14  1  0
 11 15  1  0
 14 16  1  0
 15 16  1  0
M  END
