mac-x0303-mac-x0411
     RDKit          3D

 28 30  0  0  0  0  0  0  0  0999 V2000
   -8.4430   13.0270    2.6230 N   0  0  0  0  0  0  0  0  0  0  0  0
   -8.5070   14.5770    1.9720 S   0  0  0  0  0  0  0  0  0  0  0  0
   -8.2810   15.5140    3.0460 O   0  0  0  0  0  0  0  0  0  0  0  0
   -9.6530   14.6660    1.1000 O   0  0  0  0  0  0  0  0  0  0  0  0
   -7.0840   14.6990    0.9250 C   0  0  0  0  0  0  0  0  0  0  0  0
   -7.1280   14.6640   -0.4450 N   0  0  0  0  0  0  0  0  0  0  0  0
   -5.8420   14.8340    1.3530 N   0  0  0  0  0  0  0  0  0  0  0  0
   -5.8340   14.7660   -0.9180 C   0  0  0  0  0  0  0  0  0  0  0  0
   -5.0630   14.8730    0.2320 C   0  0  0  0  0  0  0  0  0  0  0  0
   -5.2890   14.7670   -2.2090 C   0  0  0  0  0  0  0  0  0  0  0  0
   -3.6750   14.9940    0.1180 C   0  0  0  0  0  0  0  0  0  0  0  0
   -3.8830   14.8680   -2.3220 C   0  0  0  0  0  0  0  0  0  0  0  0
   -3.1030   14.9860   -1.1600 C   0  0  0  0  0  0  0  0  0  0  0  0
   -3.1960   14.8360   -3.6910 C   0  0  0  0  0  0  0  0  0  0  0  0
   -3.1340   13.4100   -4.3290 C   0  0  0  0  0  0  0  0  0  0  0  0
   -1.7120   12.8670   -4.6730 C   0  0  0  0  0  0  0  0  0  0  0  0
   -1.7020   11.4930   -5.3740 C   0  0  0  0  0  0  0  0  0  0  0  0
   -0.5790   10.9420   -6.0810 C   0  0  0  0  0  0  0  0  0  0  0  0
   -2.8770   10.7140   -5.3250 C   0  0  0  0  0  0  0  0  0  0  0  0
    0.6190   11.6220   -6.1840 O   0  0  0  0  0  0  0  0  0  0  0  0
   -2.9570    9.4590   -5.9370 C   0  0  0  0  0  0  0  0  0  0  0  0
   -0.6860    9.6680   -6.7020 C   0  0  0  0  0  0  0  0  0  0  0  0
    0.6070    8.9350   -7.5890 Cl  0  0  0  0  0  0  0  0  0  0  0  0
    0.9610   12.5540   -5.1450 C   0  0  0  0  0  0  0  0  0  0  0  0
   -1.8680    8.9420   -6.6230 C   0  0  0  0  0  0  0  0  0  0  0  0
    0.8380   11.9620   -3.7490 C   0  0  0  0  0  0  0  0  0  0  0  0
    1.3240   12.7530   -2.7720 O   0  0  0  0  0  0  0  0  0  0  0  0
    0.3650   10.8760   -3.4600 O   0  0  0  0  0  0  0  0  0  0  0  0
  2  1  1  0
  2  3  2  0
  2  4  2  0
  2  5  1  0
  5  6  1  0
  5  7  2  0
  6  8  1  0
  7  9  1  0
  8  9  2  0
  8 10  1  0
  9 11  1  0
 10 12  2  0
 11 13  2  0
 12 13  1  0
 12 14  1  0
 14 15  1  0
 15 16  1  0
 16 17  1  0
 17 18  2  0
 17 19  1  0
 18 20  1  0
 19 21  2  0
 18 22  1  0
 22 23  1  0
 20 24  1  0
 21 25  1  0
 22 25  2  0
 24 26  1  0
 26 27  1  0
 26 28  2  0
M  END
