mac-x0564-mac-x0568
     RDKit          3D

 24 27  0  0  0  0  0  0  0  0999 V2000
    0.4120   14.1860   -1.0440 O   0  0  0  0  0  0  0  0  0  0  0  0
   -0.2730   14.3020   -2.0530 C   0  0  0  0  0  0  0  0  0  0  0  0
    0.2630   14.2000   -3.3170 N   0  0  0  0  0  0  0  0  0  0  0  0
   -1.7330   14.5590   -2.0130 C   0  0  0  0  0  0  0  0  0  0  0  0
   -2.4100   14.5630   -3.3120 C   0  0  0  0  0  0  0  0  0  0  0  0
   -0.4600   14.2580   -4.3890 C   0  0  0  0  0  0  0  0  0  0  0  0
   -2.7090   14.7860   -1.0940 C   0  0  0  0  0  0  0  0  0  0  0  0
   -2.9650   14.8990    0.3300 C   0  0  2  0  0  0  0  0  0  0  0  0
   -1.8230   14.4230   -4.4500 N   0  0  0  0  0  0  0  0  0  0  0  0
   -3.9440   14.9510   -1.7220 C   0  0  0  0  0  0  0  0  0  0  0  0
   -3.8300   14.7700   -3.0530 C   0  0  0  0  0  0  0  0  0  0  0  0
   -2.9650   16.2260    0.6730 O   0  0  0  0  0  0  0  0  0  0  0  0
   -2.0030   14.3380    1.2120 N   0  0  0  0  0  0  0  0  0  0  0  0
   -4.9320   14.8080   -3.8580 C   0  0  0  0  0  0  0  0  0  0  0  0
   -5.1390   15.2370   -1.1040 C   0  0  0  0  0  0  0  0  0  0  0  0
   -4.4420   14.6110    0.5760 C   0  0  0  0  0  0  0  0  0  0  0  0
   -6.1710   15.0690   -3.2380 C   0  0  0  0  0  0  0  0  0  0  0  0
   -6.2710   15.2990   -1.8710 C   0  0  0  0  0  0  0  0  0  0  0  0
   -5.3260   14.0140   -0.3490 C   0  0  0  0  0  0  0  0  0  0  0  0
   -5.0110   14.9700    1.7810 C   0  0  0  0  0  0  0  0  0  0  0  0
   -6.6550   13.7970   -0.1290 N   0  0  0  0  0  0  0  0  0  0  0  0
   -6.3550   14.7570    2.0340 C   0  0  0  0  0  0  0  0  0  0  0  0
   -7.1480   14.1800    1.0620 C   0  0  0  0  0  0  0  0  0  0  0  0
   -8.6010   13.9680    1.3180 C   0  0  0  0  0  0  0  0  0  0  0  0
  1  2  2  0
  2  3  1  0
  2  4  1  0
  4  5  1  0
  3  6  2  0
  4  7  2  0
  7  8  1  0
  5  9  2  0
  6  9  1  0
  7 10  1  0
  5 11  1  0
 10 11  2  0
  8 12  1  0
  8 13  1  1
 11 14  1  0
 10 15  1  0
  8 16  1  0
 14 17  2  0
 15 18  2  0
 17 18  1  0
 16 19  2  0
 16 20  1  0
 19 21  1  0
 20 22  2  0
 21 23  2  0
 22 23  1  0
 23 24  1  0
M  END
