mac-x0381-mac-x0131
     RDKit          3D

 34 38  0  0  0  0  0  0  0  0999 V2000
   -8.1020   13.2830    3.4500 N   0  0  0  0  0  0  0  0  0  0  0  0
   -8.3090   14.6140    3.7120 C   0  0  0  0  0  0  0  0  0  0  0  0
   -7.3300   15.2450    4.2090 N   0  0  0  0  0  0  0  0  0  0  0  0
   -9.6170   15.1700    3.3700 C   0  0  0  0  0  0  0  0  0  0  0  0
   -6.1120   14.5060    4.3670 C   0  0  0  0  0  0  0  0  0  0  0  0
   -9.7040   15.9380    2.2130 C   0  0  0  0  0  0  0  0  0  0  0  0
  -10.7290   14.9330    4.1690 C   0  0  0  0  0  0  0  0  0  0  0  0
   -5.6010   14.1600    2.9740 C   0  0  0  0  0  0  0  0  0  0  0  0
  -10.9180   16.4900    1.8270 C   0  0  0  0  0  0  0  0  0  0  0  0
  -11.9540   15.4790    3.7940 C   0  0  0  0  0  0  0  0  0  0  0  0
   -4.1530   14.5810    2.7410 C   0  0  0  0  0  0  0  0  0  0  0  0
  -12.0650   16.2570    2.6250 C   0  0  0  0  0  0  0  0  0  0  0  0
  -11.0270   17.2690    0.6670 C   0  0  0  0  0  0  0  0  0  0  0  0
   -3.9520   15.2990    1.5120 N   0  0  0  0  0  0  0  0  0  0  0  0
  -13.2890   16.8060    2.2330 C   0  0  0  0  0  0  0  0  0  0  0  0
  -12.2520   17.8100    0.2930 C   0  0  0  0  0  0  0  0  0  0  0  0
  -13.3840   17.5790    1.0740 C   0  0  0  0  0  0  0  0  0  0  0  0
   -2.7740   15.0840    0.8180 C   0  0  0  0  0  0  0  0  0  0  0  0
   -2.7510   15.0490   -0.5920 C   0  0  0  0  0  0  0  0  0  0  0  0
   -1.6070   14.9050    1.4920 N   0  0  0  0  0  0  0  0  0  0  0  0
   -3.7130   15.1790   -1.6460 C   0  0  0  0  0  0  0  0  0  0  0  0
   -1.5120   14.8460   -1.1900 C   0  0  0  0  0  0  0  0  0  0  0  0
   -0.4800   14.7220    0.7830 C   0  0  0  0  0  0  0  0  0  0  0  0
   -5.1760   15.4090   -1.4670 C   0  0  0  0  0  0  0  0  0  0  0  0
   -3.0250   15.0510   -2.8520 C   0  0  0  0  0  0  0  0  0  0  0  0
   -1.6850   14.8490   -2.5530 N   0  0  0  0  0  0  0  0  0  0  0  0
   -0.3360   14.6780   -0.5530 N   0  0  0  0  0  0  0  0  0  0  0  0
   -3.5310   15.1030   -4.2500 C   0  0  0  0  0  0  0  0  0  0  0  0
   -0.5870   14.6610   -3.5000 C   0  0  0  0  0  0  0  0  0  0  0  0
   -0.4210   13.2070   -3.7200 C   0  0  0  0  0  0  0  0  0  0  0  0
    0.4290   12.2470   -3.2070 C   0  0  0  0  0  0  0  0  0  0  0  0
   -1.2810   12.6340   -4.6110 O   0  0  0  0  0  0  0  0  0  0  0  0
   -0.9840   11.3120   -4.6600 C   0  0  0  0  0  0  0  0  0  0  0  0
    0.0490   11.0260   -3.8150 C   0  0  0  0  0  0  0  0  0  0  0  0
  1  2  1  0
  2  3  2  3
  2  4  1  0
  3  5  1  0
  4  6  2  0
  4  7  1  0
  5  8  1  0
  6  9  1  0
  7 10  2  0
  8 11  1  0
  9 12  2  0
 10 12  1  0
  9 13  1  0
 11 14  1  0
 12 15  1  0
 13 16  2  0
 15 17  2  0
 16 17  1  0
 14 18  1  0
 18 19  1  0
 18 20  2  0
 19 21  1  0
 19 22  2  0
 20 23  1  0
 21 24  1  0
 21 25  2  0
 22 26  1  0
 25 26  1  0
 22 27  1  0
 23 27  2  0
 25 28  1  0
 26 29  1  0
 29 30  1  0
 30 31  2  0
 30 32  1  0
 32 33  1  0
 31 34  1  0
 33 34  2  0
M  END
