mac-x0337-mac-x0415
     RDKit          3D

 27 29  0  0  0  0  0  0  0  0999 V2000
   -5.8740    9.1150   -1.9910 C   0  0  0  0  0  0  0  0  0  0  0  0
   -5.3190   10.4700   -1.6680 C   0  0  0  0  0  0  0  0  0  0  0  0
   -5.9920   11.3110   -0.7640 C   0  0  0  0  0  0  0  0  0  0  0  0
   -4.1310   10.9000   -2.2620 C   0  0  0  0  0  0  0  0  0  0  0  0
   -3.6180   12.1530   -1.9680 C   0  0  0  0  0  0  0  0  0  0  0  0
   -5.4800   12.5650   -0.4680 C   0  0  0  0  0  0  0  0  0  0  0  0
   -4.2940   12.9790   -1.0750 C   0  0  0  0  0  0  0  0  0  0  0  0
   -3.6120   14.5590   -0.7510 S   0  0  2  0  0  0  0  0  0  0  0  0
   -3.1360   15.0330   -2.0970 N   0  0  0  0  0  0  0  0  0  0  0  0
   -2.8590   14.5740    0.4730 O   0  0  0  0  0  0  0  0  0  0  0  0
   -4.8480   15.6300   -0.4550 N   0  0  0  0  0  0  0  0  0  0  0  0
   -4.1280   15.5190   -3.0590 C   0  0  0  0  0  0  0  0  0  0  0  0
   -4.4210   14.6580   -4.2950 C   0  0  0  0  0  0  0  0  0  0  0  0
   -3.8430   15.3100   -5.4520 O   0  0  0  0  0  0  0  0  0  0  0  0
   -2.5110   15.5490   -5.2820 C   0  0  0  0  0  0  0  0  0  0  0  0
   -2.0220   16.8780   -5.7040 C   0  0  0  0  0  0  0  0  0  0  0  0
   -1.6690   14.6380   -4.7560 C   0  0  0  0  0  0  0  0  0  0  0  0
   -0.3070   14.9660   -4.5930 C   0  0  0  0  0  0  0  0  0  0  0  0
   -0.8010   17.3070   -5.3200 C   0  0  0  0  0  0  0  0  0  0  0  0
    0.7670   14.1940   -4.5090 C   0  0  0  0  0  0  0  0  0  0  0  0
    0.0030   16.4050   -4.4440 C   0  0  2  0  0  0  0  0  0  0  0  0
    1.0000   12.7440   -4.5320 C   0  0  0  0  0  0  0  0  0  0  0  0
    1.7860   15.2270   -4.3860 C   0  0  0  0  0  0  0  0  0  0  0  0
    1.4270   16.4780   -4.3880 N   0  0  0  0  0  0  0  0  0  0  0  0
    0.8260   12.1710   -3.1360 C   0  0  0  0  0  0  0  0  0  0  0  0
    0.1690   10.9970   -3.0830 O   0  0  0  0  0  0  0  0  0  0  0  0
    1.2400   12.7200   -2.1250 O   0  0  0  0  0  0  0  0  0  0  0  0
  1  2  1  0
  2  3  2  0
  2  4  1  0
  4  5  2  0
  3  6  1  0
  5  7  1  0
  6  7  2  0
  7  8  1  0
  8  9  2  0
  8 10  2  0
  8 11  1  1
  9 12  1  0
 12 13  1  0
 13 14  1  0
 14 15  1  0
 15 16  1  0
 15 17  2  0
 17 18  1  0
 16 19  2  0
 18 20  2  0
 18 21  1  0
 21 19  1  6
 20 22  1  0
 20 23  1  0
 21 24  1  0
 23 24  2  0
 22 25  1  0
 25 26  1  0
 25 27  2  0
M  END
