mac-x0455-mac-x0283
     RDKit          3D

 24 26  0  0  0  0  0  0  0  0999 V2000
   -2.1580   13.5940   -2.4160 C   0  0  0  0  0  0  0  0  0  0  0  0
   -1.0280   13.9790   -3.3920 C   0  0  1  0  0  0  0  0  0  0  0  0
   -1.3750   15.1860   -4.0960 O   0  0  0  0  0  0  0  0  0  0  0  0
    0.3190   14.0590   -2.6110 C   0  0  0  0  0  0  0  0  0  0  0  0
   -0.9470   12.8360   -4.4130 C   0  0  0  0  0  0  0  0  0  0  0  0
    0.9900   15.0510   -2.3790 O   0  0  0  0  0  0  0  0  0  0  0  0
    0.7500   12.8680   -2.1520 O   0  0  0  0  0  0  0  0  0  0  0  0
   -2.2490   16.0580   -3.3940 C   0  0  0  0  0  0  0  0  0  0  0  0
   -1.9850   11.8930   -4.5070 C   0  0  0  0  0  0  0  0  0  0  0  0
    0.1580   12.6980   -5.2740 C   0  0  0  0  0  0  0  0  0  0  0  0
   -2.0410   15.7790   -1.9060 C   0  0  0  0  0  0  0  0  0  0  0  0
   -1.9220   10.8460   -5.4260 C   0  0  0  0  0  0  0  0  0  0  0  0
    0.2180   11.6490   -6.1940 C   0  0  0  0  0  0  0  0  0  0  0  0
   -0.8220   10.7250   -6.2660 C   0  0  0  0  0  0  0  0  0  0  0  0
   -3.2850   15.5030   -1.0950 C   0  0  0  0  0  0  0  0  0  0  0  0
   -4.5720   15.3210   -1.6590 C   0  0  0  0  0  0  0  0  0  0  0  0
   -3.1000   15.4260    0.2860 C   0  0  0  0  0  0  0  0  0  0  0  0
   -5.6050   15.0650   -0.7520 C   0  0  0  0  0  0  0  0  0  0  0  0
   -4.1510   15.1710    1.1550 C   0  0  0  0  0  0  0  0  0  0  0  0
   -6.9210   14.8530   -1.0360 O   0  0  0  0  0  0  0  0  0  0  0  0
   -5.4290   14.9850    0.6190 C   0  0  0  0  0  0  0  0  0  0  0  0
   -6.7220   14.7150    1.1210 C   0  0  0  0  0  0  0  0  0  0  0  0
   -7.6240   14.6320    0.1410 N   0  0  0  0  0  0  0  0  0  0  0  0
   -6.9960   14.5700    2.4330 N   0  0  0  0  0  0  0  0  0  0  0  0
  2  1  1  1
  2  3  1  0
  2  4  1  0
  2  5  1  0
  4  6  2  0
  4  7  1  0
  3  8  1  0
  5  9  2  0
  5 10  1  0
  8 11  1  0
  9 12  1  0
 10 13  2  0
 12 14  2  0
 13 14  1  0
 11 15  1  0
 15 16  2  0
 15 17  1  0
 16 18  1  0
 17 19  2  0
 18 20  1  0
 18 21  2  0
 19 21  1  0
 21 22  1  0
 20 23  1  0
 22 23  2  0
 22 24  1  0
M  END
