mac-x0159-diamond-x0844_0_A
     RDKit          3D

 26 29  0  0  0  0  0  0  0  0999 V2000
   -4.1250   15.6800    1.7360 N   0  0  0  0  0  0  0  0  0  0  0  0
   -3.4450   14.7820    0.8440 C   0  0  2  0  0  0  0  0  0  0  0  0
   -1.9560   15.0200    0.7360 C   0  0  2  0  0  0  0  0  0  0  0  0
   -3.9980   15.0220   -0.4460 N   0  0  0  0  0  0  0  0  0  0  0  0
   -3.1720   16.0080   -1.1020 C   0  0  0  0  0  0  0  0  0  0  0  0
   -1.4750   14.5480   -0.6380 C   0  0  1  0  0  0  0  0  0  0  0  0
   -1.1920   14.1930    1.6010 N   0  0  0  0  0  0  0  0  0  0  0  0
   -1.9300   15.5060   -1.6000 N   0  0  0  0  0  0  0  0  0  0  0  0
   -0.0590   14.3910   -0.4550 N   0  0  0  0  0  0  0  0  0  0  0  0
    0.0770   14.2400    0.9790 C   0  0  0  0  0  0  0  0  0  0  0  0
   -2.0820   15.2280   -3.0350 C   0  0  2  0  0  0  0  0  0  0  0  0
   -2.6110   13.8450   -3.5280 C   0  0  0  0  0  0  0  0  0  0  0  0
   -1.1410   16.0760   -3.9170 C   0  0  0  0  0  0  0  0  0  0  0  0
   -3.9890   13.6020   -3.1410 O   0  0  0  0  0  0  0  0  0  0  0  0
    0.2500   16.1380   -3.8890 C   0  0  0  0  0  0  0  0  0  0  0  0
   -1.7160   16.9240   -4.8750 N   0  0  0  0  0  0  0  0  0  0  0  0
   -0.7990   17.5960   -5.5290 C   0  0  0  0  0  0  0  0  0  0  0  0
    0.8190   17.2610   -5.0580 S   0  0  0  0  0  0  0  0  0  0  0  0
   -4.4420   14.1760   -1.8760 C   0  0  2  0  0  0  0  0  0  0  0  0
   -1.0910   18.5820   -6.6090 C   0  0  0  0  0  0  0  0  0  0  0  0
   -4.2580   13.1460   -0.7900 C   0  0  0  0  0  0  0  0  0  0  0  0
   -5.8940   14.7160   -1.9280 C   0  0  0  0  0  0  0  0  0  0  0  0
   -5.0300   13.1360    0.3150 C   0  0  0  0  0  0  0  0  0  0  0  0
   -6.6310   14.6920   -0.5890 C   0  0  0  0  0  0  0  0  0  0  0  0
   -7.7460   15.1890   -0.4260 O   0  0  0  0  0  0  0  0  0  0  0  0
   -6.0070   14.0730    0.4630 N   0  0  0  0  0  0  0  0  0  0  0  0
  2  1  1  1
  2  3  1  0
  2  4  1  0
  4  5  1  0
  3  6  1  0
  3  7  1  1
  5  8  1  0
  6  8  1  0
  6  9  1  1
  7 10  1  0
  9 10  1  0
  8 11  1  0
 11 12  1  1
 11 13  1  0
 12 14  1  0
 13 15  2  0
 13 16  1  0
 16 17  2  0
 15 18  1  0
 17 18  1  0
 19 14  1  6
 17 20  1  0
 19 21  1  0
 19 22  1  0
 21 23  2  0
 22 24  1  0
 24 25  2  0
 23 26  1  0
 24 26  1  0
M  END
