mac-x0263-mac-x0301
     RDKit          3D

 24 27  0  0  0  0  0  0  0  0999 V2000
  -11.4330   14.4300    2.5860 O   0  0  0  0  0  0  0  0  0  0  0  0
  -10.8670   15.6240    2.8660 C   0  0  0  0  0  0  0  0  0  0  0  0
  -11.4110   16.3970    3.6350 O   0  0  0  0  0  0  0  0  0  0  0  0
   -9.5700   15.8430    2.1440 C   0  0  0  0  0  0  0  0  0  0  0  0
   -9.1510   14.6240    1.3460 C   0  0  0  0  0  0  0  0  0  0  0  0
   -7.7480   14.7090    0.8710 C   0  0  0  0  0  0  0  0  0  0  0  0
   -7.4250   14.8090   -0.4610 N   0  0  0  0  0  0  0  0  0  0  0  0
   -6.6700   14.6970    1.6170 N   0  0  0  0  0  0  0  0  0  0  0  0
   -6.0620   14.8400   -0.5630 C   0  0  0  0  0  0  0  0  0  0  0  0
   -5.6160   14.7700    0.7500 C   0  0  0  0  0  0  0  0  0  0  0  0
   -5.2040   14.9110   -1.6540 C   0  0  0  0  0  0  0  0  0  0  0  0
   -4.2510   14.7720    1.0260 C   0  0  0  0  0  0  0  0  0  0  0  0
   -3.8270   14.8690   -1.3730 C   0  0  0  0  0  0  0  0  0  0  0  0
   -3.3540   14.8030   -0.0330 C   0  0  0  0  0  0  0  0  0  0  0  0
   -1.9820   14.7500    0.1980 C   0  0  0  0  0  0  0  0  0  0  0  0
   -2.9000   14.8710   -2.4200 C   0  0  0  0  0  0  0  0  0  0  0  0
   -1.5220   14.7900   -2.1760 C   0  0  0  0  0  0  0  0  0  0  0  0
   -1.0860   14.7330   -0.8540 C   0  0  0  0  0  0  0  0  0  0  0  0
   -1.3570   14.6980    1.4350 O   0  0  0  0  0  0  0  0  0  0  0  0
   -0.6580   14.7630   -3.3700 C   0  0  0  0  0  0  0  0  0  0  0  0
    0.1910   14.6520   -0.4090 O   0  0  0  0  0  0  0  0  0  0  0  0
   -0.0030   14.5110    1.0080 C   0  0  0  0  0  0  0  0  0  0  0  0
    0.6540   14.8310   -3.1120 O   0  0  0  0  0  0  0  0  0  0  0  0
   -1.0710   14.6750   -4.5130 O   0  0  0  0  0  0  0  0  0  0  0  0
  1  2  1  0
  2  3  2  0
  2  4  1  0
  4  5  1  0
  5  6  1  0
  6  7  1  0
  6  8  2  0
  7  9  1  0
  8 10  1  0
  9 10  2  0
  9 11  1  0
 10 12  1  0
 11 13  2  0
 12 14  2  0
 13 14  1  0
 14 15  1  0
 13 16  1  0
 16 17  2  0
 15 18  2  0
 17 18  1  0
 15 19  1  0
 17 20  1  0
 18 21  1  0
 19 22  1  0
 21 22  1  0
 20 23  1  0
 20 24  2  0
M  END
