mac-x0567-mac-x0213
     RDKit          3D

 24 27  0  0  0  0  0  0  0  0999 V2000
   -0.3760   14.6240   -1.0660 N   0  0  0  0  0  0  0  0  0  0  0  0
   -1.5260   14.7900   -0.3950 C   0  0  0  0  0  0  0  0  0  0  0  0
   -1.5180   14.7540    0.9110 N   0  0  0  0  0  0  0  0  0  0  0  0
   -2.7690   15.0020   -0.7380 C   0  0  0  0  0  0  0  0  0  0  0  0
   -0.2400   14.5020    1.3630 C   0  0  0  0  0  0  0  0  0  0  0  0
   -2.6890   14.9370    1.5520 N   0  0  0  0  0  0  0  0  0  0  0  0
   -3.5170   15.1040    0.4870 C   0  0  0  0  0  0  0  0  0  0  0  0
   -3.1870   15.0990   -2.0430 C   0  0  0  0  0  0  0  0  0  0  0  0
    0.0910   13.5050    0.2550 C   0  0  0  0  0  0  0  0  0  0  0  0
   -4.8840   15.3430    0.4040 C   0  0  0  0  0  0  0  0  0  0  0  0
   -4.5510   15.3340   -2.0900 C   0  0  0  0  0  0  0  0  0  0  0  0
    0.3220   13.9780   -1.1500 N   0  0  0  0  0  0  0  0  0  0  0  0
   -5.3640   15.4530   -0.9270 C   0  0  0  0  0  0  0  0  0  0  0  0
    0.1740   13.2150   -2.2080 C   0  0  0  0  0  0  0  0  0  0  0  0
   -0.1420   11.8920   -2.1870 O   0  0  0  0  0  0  0  0  0  0  0  0
    0.2980   13.7140   -3.6530 C   0  0  0  0  0  0  0  0  0  0  0  0
   -1.1100   13.9990   -4.2300 C   0  0  0  0  0  0  0  0  0  0  0  0
    1.1330   15.0130   -3.7710 C   0  0  0  0  0  0  0  0  0  0  0  0
   -1.0650   15.4430   -4.6460 C   0  0  0  0  0  0  0  0  0  0  0  0
    0.1880   16.0030   -4.3960 C   0  0  0  0  0  0  0  0  0  0  0  0
   -2.0890   16.1960   -5.2140 C   0  0  0  0  0  0  0  0  0  0  0  0
    0.4440   17.3300   -4.7200 C   0  0  0  0  0  0  0  0  0  0  0  0
   -1.8330   17.5300   -5.5410 C   0  0  0  0  0  0  0  0  0  0  0  0
   -0.5750   18.0900   -5.2960 C   0  0  0  0  0  0  0  0  0  0  0  0
  1  2  1  0
  2  3  1  0
  2  4  2  0
  3  5  1  0
  3  6  1  0
  4  7  1  0
  6  7  2  0
  4  8  1  0
  5  9  1  0
  7 10  1  0
  8 11  2  0
  9 12  1  0
 10 13  2  0
 11 13  1  0
 12 14  2  3
 14 15  1  0
 14 16  1  0
 16 17  1  0
 16 18  1  0
 17 19  1  0
 18 20  1  0
 19 20  2  0
 19 21  1  0
 20 22  1  0
 21 23  2  0
 22 24  2  0
 23 24  1  0
M  END
