mac-x0302-diamond-x0967_0_A
     RDKit          3D

 18 19  0  0  0  0  0  0  0  0999 V2000
    1.6210   14.0640   -3.7130 O   0  0  0  0  0  0  0  0  0  0  0  0
    0.5740   14.0170   -2.8710 C   0  0  0  0  0  0  0  0  0  0  0  0
    0.6970   13.5420   -1.7590 O   0  0  0  0  0  0  0  0  0  0  0  0
   -0.6850   14.5950   -3.4820 C   0  0  0  0  0  0  0  0  0  0  0  0
   -1.7200   14.7040   -2.4740 N   0  0  0  0  0  0  0  0  0  0  0  0
   -2.9990   15.1140   -2.6380 C   0  0  0  0  0  0  0  0  0  0  0  0
   -3.3810   15.6300   -3.6800 O   0  0  0  0  0  0  0  0  0  0  0  0
   -3.9050   14.9120   -1.4980 C   0  0  0  0  0  0  0  0  0  0  0  0
   -5.2210   15.1520   -1.6560 C   0  0  0  0  0  0  0  0  0  0  0  0
   -3.3350   14.4450   -0.2450 C   0  0  0  0  0  0  0  0  0  0  0  0
   -6.1670   14.9480   -0.5220 C   0  0  2  0  0  0  0  0  0  0  0  0
   -4.0100   14.5130    0.8920 C   0  0  0  0  0  0  0  0  0  0  0  0
   -7.1740   15.9340   -0.7180 O   0  0  0  0  0  0  0  0  0  0  0  0
   -5.3780   15.1170    0.8520 C   0  0  2  0  0  0  0  0  0  0  0  0
   -6.8710   13.6790   -0.6160 N   0  0  0  0  0  0  0  0  0  0  0  0
   -6.3170   14.8690    1.9950 C   0  0  0  0  0  0  0  0  0  0  0  0
   -7.3890   13.3180    0.5080 C   0  0  0  0  0  0  0  0  0  0  0  0
   -7.3120   14.0000    1.8290 C   0  0  0  0  0  0  0  0  0  0  0  0
  1  2  1  0
  2  3  2  0
  2  4  1  0
  4  5  1  0
  5  6  1  0
  6  7  2  0
  6  8  1  0
  8  9  2  0
  8 10  1  0
  9 11  1  0
 10 12  2  0
 11 13  1  1
 11 14  1  0
 14 12  1  6
 11 15  1  0
 14 16  1  0
 15 17  2  0
 16 18  2  0
 17 18  1  0
M  END
