mac-x0412-diamond-x0910_1_A
     RDKit          3D

 11 12  0  0  0  0  0  0  0  0999 V2000
   -7.9660   14.9350   -0.5530 O   0  0  0  0  0  0  0  0  0  0  0  0
   -6.9740   14.7360    0.1370 C   0  0  0  0  0  0  0  0  0  0  0  0
   -7.0680   14.7890    1.5150 N   0  0  0  0  0  0  0  0  0  0  0  0
   -5.5880   14.4280   -0.4970 C   0  0  2  0  0  0  0  0  0  0  0  0
   -4.4350   14.8550    0.4020 C   0  0  0  0  0  0  0  0  0  0  0  0
   -5.9930   14.9760    2.1990 C   0  0  0  0  0  0  0  0  0  0  0  0
   -5.4240   14.9700   -1.8990 C   0  0  0  0  0  0  0  0  0  0  0  0
   -4.6160   15.1250    1.6940 C   0  0  0  0  0  0  0  0  0  0  0  0
   -3.1380   14.9320   -0.2400 C   0  0  0  0  0  0  0  0  0  0  0  0
   -4.2180   15.2860   -2.3850 C   0  0  0  0  0  0  0  0  0  0  0  0
   -3.0430   15.1260   -1.5650 C   0  0  0  0  0  0  0  0  0  0  0  0
  1  2  2  0
  2  3  1  0
  2  4  1  0
  4  5  1  0
  3  6  2  0
  4  7  1  6
  5  8  2  0
  6  8  1  0
  5  9  1  0
  7 10  2  0
  9 11  2  0
 10 11  1  0
M  END
