mac-x0138-mac-x0341
     RDKit          3D

 19 21  0  0  0  0  0  0  0  0999 V2000
   -1.8200   14.5440   -3.6040 C   0  0  0  0  0  0  0  0  0  0  0  0
   -2.4280   13.9910   -2.3990 N   0  0  0  0  0  0  0  0  0  0  0  0
   -3.9010   13.9660   -2.4490 C   0  0  0  0  0  0  0  0  0  0  0  0
   -2.0230   14.7370   -1.2460 C   0  0  1  0  0  0  0  0  0  0  0  0
   -4.4250   14.4620   -1.0840 C   0  0  1  0  0  0  0  0  0  0  0  0
   -3.3010   15.3390   -0.5850 C   0  0  1  0  0  0  0  0  0  0  0  0
   -1.0640   14.0810   -0.3980 N   0  0  0  0  0  0  0  0  0  0  0  0
   -3.1260   15.5840    0.9270 C   0  0  1  0  0  0  0  0  0  0  0  0
   -0.9230   14.6920    0.8780 C   0  0  2  0  0  0  0  0  0  0  0  0
   -5.8360   15.0070   -1.2300 C   0  0  0  0  0  0  0  0  0  0  0  0
   -4.4750   13.4350   -0.0300 C   0  0  0  0  0  0  0  0  0  0  0  0
   -4.3570   15.4770    1.6680 N   0  0  0  0  0  0  0  0  0  0  0  0
   -0.0790   13.8820    1.6690 N   0  0  0  0  0  0  0  0  0  0  0  0
   -6.3290   15.2820   -2.3170 O   0  0  0  0  0  0  0  0  0  0  0  0
   -2.1470   14.7740    1.5920 N   0  0  0  0  0  0  0  0  0  0  0  0
   -6.5600   15.1560   -0.0820 N   0  0  0  0  0  0  0  0  0  0  0  0
   -5.3630   13.4410    0.9090 N   0  0  0  0  0  0  0  0  0  0  0  0
   -6.3040   14.4090    0.9300 C   0  0  0  0  0  0  0  0  0  0  0  0
   -6.9650   14.5580    2.1050 N   0  0  0  0  0  0  0  0  0  0  0  0
  1  2  1  0
  2  3  1  0
  2  4  1  0
  5  3  1  6
  4  6  1  0
  5  6  1  0
  4  7  1  1
  6  8  1  1
  7  9  1  0
  5 10  1  0
  5 11  1  0
  8 12  1  1
  9 13  1  1
 10 14  2  0
  8 15  1  0
  9 15  1  0
 10 16  1  0
 11 17  2  0
 16 18  2  0
 17 18  1  0
 18 19  1  0
M  END
