mac-x0451-diamond-x0742_0_A
     RDKit          3D

 19 21  0  0  0  0  0  0  0  0999 V2000
   -6.1300   14.6240    2.5220 N   0  0  0  0  0  0  0  0  0  0  0  0
   -4.9900   15.2620    1.9270 C   0  0  2  0  0  0  0  0  0  0  0  0
   -5.2810   15.2290    0.5260 N   0  0  0  0  0  0  0  0  0  0  0  0
   -3.4700   14.3980    2.2040 S   0  0  0  0  0  0  0  0  0  0  0  0
   -4.8040   13.9280    0.0560 C   0  0  2  0  0  0  0  0  0  0  0  0
   -3.4580   13.5630    0.6000 C   0  0  1  0  0  0  0  0  0  0  0  0
   -4.7760   13.6590   -1.3980 C   0  0  1  0  0  0  0  0  0  0  0  0
   -2.2430   13.6440   -0.4220 C   0  0  1  0  0  0  0  0  0  0  0  0
   -5.7450   12.5170   -1.6430 C   0  0  0  0  0  0  0  0  0  0  0  0
   -4.5420   14.8240   -2.3400 C   0  0  0  0  0  0  0  0  0  0  0  0
   -2.1610   14.9780   -1.1040 C   0  0  1  0  0  0  0  0  0  0  0  0
   -0.8590   13.5070    0.1590 C   0  0  0  0  0  0  0  0  0  0  0  0
   -5.6840   11.8800   -2.6880 O   0  0  0  0  0  0  0  0  0  0  0  0
   -6.7370   12.1350   -0.5630 C   0  0  0  0  0  0  0  0  0  0  0  0
   -3.1200   15.4220   -2.2250 C   0  0  1  0  0  0  0  0  0  0  0  0
   -0.5010   14.3920    1.0360 C   0  0  0  0  0  0  0  0  0  0  0  0
   -1.9810   15.9380    0.0690 C   0  0  0  0  0  0  0  0  0  0  0  0
   -2.4730   15.2830   -3.4020 F   0  0  0  0  0  0  0  0  0  0  0  0
   -1.4190   15.3290    1.2740 N   0  0  0  0  0  0  0  0  0  0  0  0
  2  1  1  1
  2  3  1  0
  2  4  1  0
  5  3  1  6
  6  4  1  1
  5  6  1  0
  5  7  1  0
  6  8  1  0
  7  9  1  6
  7 10  1  0
  8 11  1  0
  8 12  1  1
  9 13  2  0
  9 14  1  0
 10 15  1  0
 11 15  1  0
 12 16  2  0
 11 17  1  1
 15 18  1  6
 16 19  1  0
 17 19  1  0
M  END
