mac-x0284-diamond-x0685_1_A
     RDKit          3D

 22 23  0  0  0  0  0  0  0  0999 V2000
   -4.0170   15.4860    0.7420 C   0  0  0  0  0  0  0  0  0  0  0  0
   -3.5610   15.2430   -0.6650 C   0  0  0  0  0  0  0  0  0  0  0  0
   -4.4390   15.4320   -1.7380 C   0  0  0  0  0  0  0  0  0  0  0  0
   -2.2500   14.8250   -0.9320 C   0  0  0  0  0  0  0  0  0  0  0  0
   -1.8370   14.6150   -2.2560 C   0  0  0  0  0  0  0  0  0  0  0  0
   -4.0150   15.2140   -3.0530 C   0  0  0  0  0  0  0  0  0  0  0  0
   -0.4590   14.1840   -2.4940 C   0  0  0  0  0  0  0  0  0  0  0  0
   -2.7170   14.8120   -3.3120 C   0  0  0  0  0  0  0  0  0  0  0  0
   -2.3120   14.6130   -4.6010 O   0  0  0  0  0  0  0  0  0  0  0  0
    0.4410   14.8350   -1.9470 O   0  0  0  0  0  0  0  0  0  0  0  0
   -0.2120   13.0550   -3.2760 N   0  0  0  0  0  0  0  0  0  0  0  0
   -1.0170   12.5430   -4.4210 C   0  0  0  0  0  0  0  0  0  0  0  0
    0.8890   12.0370   -2.4970 S   0  0  0  0  0  0  0  0  0  0  0  0
   -0.8810   11.0820   -4.6090 N   0  0  0  0  0  0  0  0  0  0  0  0
    2.2460   12.1180   -3.3540 O   0  0  0  0  0  0  0  0  0  0  0  0
    0.4030   10.4970   -2.5750 O   0  0  0  0  0  0  0  0  0  0  0  0
   -0.5560   10.6120   -5.9870 C   0  0  0  0  0  0  0  0  0  0  0  0
   -0.6060    9.0790   -6.1620 C   0  0  0  0  0  0  0  0  0  0  0  0
   -1.5060   11.2520   -7.0270 C   0  0  0  0  0  0  0  0  0  0  0  0
   -0.0880    8.6730   -7.5380 C   0  0  0  0  0  0  0  0  0  0  0  0
   -1.0940   10.8640   -8.4550 C   0  0  0  0  0  0  0  0  0  0  0  0
   -0.9160    9.3470   -8.6410 C   0  0  0  0  0  0  0  0  0  0  0  0
  1  2  1  0
  2  3  2  0
  2  4  1  0
  4  5  2  0
  3  6  1  0
  5  7  1  0
  5  8  1  0
  6  8  2  0
  8  9  1  0
  7 10  2  0
  7 11  1  0
 11 12  1  0
 11 13  1  0
 12 14  1  0
 13 15  1  0
 13 16  1  0
 14 17  1  0
 17 18  1  0
 17 19  1  0
 18 20  1  0
 19 21  1  0
 20 22  1  0
 21 22  1  0
M  END
