mac-x0564-mac-x0375
     RDKit          3D

 24 27  0  0  0  0  0  0  0  0999 V2000
    0.3170   12.8230   -2.4000 N   0  0  0  0  0  0  0  0  0  0  0  0
    1.3150   12.5110   -3.2900 C   0  0  0  0  0  0  0  0  0  0  0  0
    2.4120   12.1050   -2.9790 O   0  0  0  0  0  0  0  0  0  0  0  0
   -0.2790   13.9050   -2.7240 C   0  0  0  0  0  0  0  0  0  0  0  0
    0.9210   12.6760   -4.7940 C   0  0  0  0  0  0  0  0  0  0  0  0
   -1.5090   14.3140   -2.1390 C   0  0  0  0  0  0  0  0  0  0  0  0
    0.1240   14.6950   -3.7700 N   0  0  0  0  0  0  0  0  0  0  0  0
    0.8880   11.5490   -5.6680 O   0  0  0  0  0  0  0  0  0  0  0  0
   -2.4810   14.6160   -3.0360 C   0  0  0  0  0  0  0  0  0  0  0  0
   -0.8660   14.9720   -4.5430 C   0  0  0  0  0  0  0  0  0  0  0  0
   -1.9480   14.4400   -0.8550 O   0  0  0  0  0  0  0  0  0  0  0  0
   -2.1710   14.5610   -4.3510 N   0  0  0  0  0  0  0  0  0  0  0  0
   -3.2770   14.8040   -0.9950 C   0  0  0  0  0  0  0  0  0  0  0  0
   -3.6330   14.9110   -2.3430 C   0  0  0  0  0  0  0  0  0  0  0  0
   -0.2540   10.8040   -5.8900 C   0  0  0  0  0  0  0  0  0  0  0  0
   -4.9310   15.2500   -2.6910 C   0  0  0  0  0  0  0  0  0  0  0  0
   -4.1790   15.0310    0.0330 C   0  0  0  0  0  0  0  0  0  0  0  0
   -0.3280    9.6990   -6.7420 C   0  0  0  0  0  0  0  0  0  0  0  0
   -1.4100   11.1950   -5.2010 C   0  0  0  0  0  0  0  0  0  0  0  0
   -5.8550   15.4780   -1.6820 C   0  0  0  0  0  0  0  0  0  0  0  0
   -5.4800   15.3660   -0.3480 C   0  0  0  0  0  0  0  0  0  0  0  0
   -1.5240    8.9970   -6.9030 C   0  0  0  0  0  0  0  0  0  0  0  0
   -2.6080   10.4930   -5.3630 C   0  0  0  0  0  0  0  0  0  0  0  0
   -2.6680    9.3940   -6.2130 C   0  0  0  0  0  0  0  0  0  0  0  0
  1  2  1  0
  2  3  2  0
  1  4  2  3
  2  5  1  0
  4  6  1  0
  4  7  1  0
  5  8  1  0
  6  9  2  0
  7 10  2  0
  6 11  1  0
  9 12  1  0
 10 12  1  0
 11 13  1  0
  9 14  1  0
 13 14  2  0
  8 15  1  0
 14 16  1  0
 13 17  1  0
 15 18  2  0
 15 19  1  0
 16 20  2  0
 17 21  2  0
 20 21  1  0
 18 22  1  0
 19 23  2  0
 22 24  2  0
 23 24  1  0
M  END
