mac-x0179-diamond-x0837_0_A
     RDKit          3D

 25 27  0  0  0  0  0  0  0  0999 V2000
    1.6720   12.9460   -2.2440 O   0  0  0  0  0  0  0  0  0  0  0  0
    0.9360   12.2670   -3.2180 C   0  0  0  0  0  0  0  0  0  0  0  0
    0.7130   11.0620   -2.9910 O   0  0  0  0  0  0  0  0  0  0  0  0
    0.4620   12.9560   -4.4560 C   0  0  0  0  0  0  0  0  0  0  0  0
    0.0170   11.9210   -5.4100 N   0  0  0  0  0  0  0  0  0  0  0  0
    0.7160   11.4250   -6.5070 C   0  0  0  0  0  0  0  0  0  0  0  0
   -1.1860   11.1230   -5.3100 C   0  0  0  0  0  0  0  0  0  0  0  0
    1.8410   11.8830   -6.8800 O   0  0  0  0  0  0  0  0  0  0  0  0
   -2.0740   11.2870   -4.4750 N   0  0  0  0  0  0  0  0  0  0  0  0
   -0.0180   10.3120   -7.1090 C   0  0  0  0  0  0  0  0  0  0  0  0
   -1.1580   10.1290   -6.3780 C   0  0  0  0  0  0  0  0  0  0  0  0
   -2.4390   12.0740   -3.4240 C   0  0  0  0  0  0  0  0  0  0  0  0
    0.2780    9.5160   -8.2040 C   0  0  0  0  0  0  0  0  0  0  0  0
   -2.0560    9.1280   -6.7140 C   0  0  0  0  0  0  0  0  0  0  0  0
   -3.2640   13.2510   -3.8560 C   0  0  0  0  0  0  0  0  0  0  0  0
   -0.6190    8.5180   -8.5410 C   0  0  0  0  0  0  0  0  0  0  0  0
   -1.7710    8.3400   -7.7900 C   0  0  0  0  0  0  0  0  0  0  0  0
   -3.1670   14.9050   -2.6290 I   0  0  0  0  0  0  0  0  0  0  0  0
   -4.2760   14.5910   -0.8660 C   0  0  1  0  0  0  0  0  0  0  0  0
   -3.6550   15.1560    0.3670 C   0  0  0  0  0  0  0  0  0  0  0  0
   -5.6890   15.0170   -0.9950 C   0  0  0  0  0  0  0  0  0  0  0  0
   -4.3730   15.2710    1.4550 C   0  0  0  0  0  0  0  0  0  0  0  0
   -6.4290   14.8390    0.2470 C   0  0  0  0  0  0  0  0  0  0  0  0
   -7.6670   14.6730    0.2160 O   0  0  0  0  0  0  0  0  0  0  0  0
   -5.7350   14.8610    1.4890 N   0  0  0  0  0  0  0  0  0  0  0  0
  1  2  1  0
  2  3  2  0
  2  4  1  0
  4  5  1  0
  5  6  1  0
  5  7  1  0
  6  8  2  0
  7  9  2  3
  6 10  1  0
  7 11  1  0
 10 11  2  0
  9 12  1  0
 10 13  1  0
 11 14  1  0
 12 15  1  0
 13 16  2  0
 14 17  2  0
 16 17  1  0
 15 18  1  0
 19 18  1  6
 19 20  1  0
 19 21  1  0
 20 22  2  0
 21 23  1  0
 23 24  2  0
 22 25  1  0
 23 25  1  0
M  END
