mac-x0283-mac-x0179
     RDKit          3D

 28 31  0  0  0  0  0  0  0  0999 V2000
   -6.8040   14.7110    2.4990 N   0  0  0  0  0  0  0  0  0  0  0  0
   -6.6890   14.7620    1.1600 C   0  0  0  0  0  0  0  0  0  0  0  0
   -7.7360   14.7360    0.3350 N   0  0  0  0  0  0  0  0  0  0  0  0
   -5.4540   14.8580    0.4530 C   0  0  0  0  0  0  0  0  0  0  0  0
   -7.2070   14.8170   -0.9400 O   0  0  0  0  0  0  0  0  0  0  0  0
   -5.8560   14.8870   -0.8700 C   0  0  0  0  0  0  0  0  0  0  0  0
   -4.0760   14.9220    0.7400 C   0  0  0  0  0  0  0  0  0  0  0  0
   -4.9950   14.9690   -1.9530 C   0  0  0  0  0  0  0  0  0  0  0  0
   -3.1730   15.0020   -0.3340 C   0  0  0  0  0  0  0  0  0  0  0  0
   -3.6290   15.0210   -1.6700 C   0  0  0  0  0  0  0  0  0  0  0  0
   -2.6640   15.0920   -2.8300 C   0  0  0  0  0  0  0  0  0  0  0  0
   -2.8140   13.8730   -3.7470 C   0  0  0  0  0  0  0  0  0  0  0  0
   -1.9260   12.7000   -3.3210 C   0  0  0  0  0  0  0  0  0  0  0  0
   -2.0190   11.6300   -4.3050 N   0  0  0  0  0  0  0  0  0  0  0  0
   -1.1890   11.3180   -5.2390 C   0  0  0  0  0  0  0  0  0  0  0  0
   -0.0040   12.0050   -5.4420 N   0  0  0  0  0  0  0  0  0  0  0  0
   -1.2390   10.2690   -6.2690 C   0  0  0  0  0  0  0  0  0  0  0  0
    0.6350   12.9110   -4.5080 C   0  0  0  0  0  0  0  0  0  0  0  0
    0.6880   11.5050   -6.4970 C   0  0  0  0  0  0  0  0  0  0  0  0
   -0.0910   10.3980   -7.0380 C   0  0  0  0  0  0  0  0  0  0  0  0
   -2.1570    9.2740   -6.5700 C   0  0  0  0  0  0  0  0  0  0  0  0
    0.9850   12.1790   -3.2110 C   0  0  0  0  0  0  0  0  0  0  0  0
    1.7580   11.8640   -6.9140 O   0  0  0  0  0  0  0  0  0  0  0  0
    0.2010    9.5780   -8.1130 C   0  0  0  0  0  0  0  0  0  0  0  0
   -1.8900    8.4260   -7.6540 C   0  0  0  0  0  0  0  0  0  0  0  0
    1.6200   12.9670   -2.3060 O   0  0  0  0  0  0  0  0  0  0  0  0
    0.7420   11.0080   -2.9650 O   0  0  0  0  0  0  0  0  0  0  0  0
   -0.7210    8.5760   -8.4220 C   0  0  0  0  0  0  0  0  0  0  0  0
  1  2  1  0
  2  3  2  0
  2  4  1  0
  3  5  1  0
  4  6  2  0
  5  6  1  0
  4  7  1  0
  6  8  1  0
  7  9  2  0
  8 10  2  0
  9 10  1  0
 10 11  1  0
 11 12  1  0
 12 13  1  0
 13 14  1  0
 14 15  2  3
 15 16  1  0
 15 17  1  0
 16 18  1  0
 16 19  1  0
 17 20  2  0
 19 20  1  0
 17 21  1  0
 18 22  1  0
 19 23  2  0
 20 24  1  0
 21 25  2  0
 22 26  1  0
 22 27  2  0
 24 28  2  0
 25 28  1  0
M  END
