mac-x0333-mac-x0417
     RDKit          3D

 26 29  0  0  0  0  0  0  0  0999 V2000
   -2.3490   15.1030   -2.6790 O   0  0  0  0  0  0  0  0  0  0  0  0
   -3.2650   15.0280   -1.6700 C   0  0  0  0  0  0  0  0  0  0  0  0
   -2.8200   14.8000   -0.3330 C   0  0  0  0  0  0  0  0  0  0  0  0
   -4.6240   15.1760   -1.9780 C   0  0  0  0  0  0  0  0  0  0  0  0
   -1.3510   14.6150    0.0560 C   0  0  0  0  0  0  0  0  0  0  0  0
   -5.5240   15.0940   -0.9420 C   0  0  0  0  0  0  0  0  0  0  0  0
   -3.7880   14.7350    0.6870 C   0  0  0  0  0  0  0  0  0  0  0  0
   -0.5690   13.5060   -0.6730 C   0  0  0  0  0  0  0  0  0  0  0  0
   -5.1220   14.8830    0.3510 C   0  0  0  0  0  0  0  0  0  0  0  0
   -6.8800   15.1970   -1.0350 O   0  0  0  0  0  0  0  0  0  0  0  0
    0.1470   13.9500   -1.9540 C   0  0  0  0  0  0  0  0  0  0  0  0
   -6.1820   14.8430    1.2010 O   0  0  0  0  0  0  0  0  0  0  0  0
   -7.2430   14.6620    0.2490 C   0  0  0  0  0  0  0  0  0  0  0  0
    1.0800   12.9250   -2.3550 O   0  0  0  0  0  0  0  0  0  0  0  0
    0.6250   12.0110   -3.2660 C   0  0  0  0  0  0  0  0  0  0  0  0
    0.4730   10.8210   -3.0160 O   0  0  0  0  0  0  0  0  0  0  0  0
    0.3530   12.6940   -4.5920 C   0  0  0  0  0  0  0  0  0  0  0  0
    0.2690   11.7340   -5.7260 C   0  0  0  0  0  0  0  0  0  0  0  0
    1.2480   11.7210   -6.6340 N   0  0  0  0  0  0  0  0  0  0  0  0
   -0.7320   10.7730   -6.0180 C   0  0  0  0  0  0  0  0  0  0  0  0
    0.8930   10.7360   -7.5510 O   0  0  0  0  0  0  0  0  0  0  0  0
   -0.2880   10.1700   -7.1790 C   0  0  0  0  0  0  0  0  0  0  0  0
   -1.9450   10.3390   -5.4530 C   0  0  0  0  0  0  0  0  0  0  0  0
   -0.9610    9.1480   -7.8440 C   0  0  0  0  0  0  0  0  0  0  0  0
   -2.6510    9.3120   -6.0950 C   0  0  0  0  0  0  0  0  0  0  0  0
   -2.1670    8.7260   -7.2680 C   0  0  0  0  0  0  0  0  0  0  0  0
  1  2  1  0
  2  3  2  0
  2  4  1  0
  3  5  1  0
  4  6  2  0
  3  7  1  0
  5  8  1  0
  6  9  1  0
  7  9  2  0
  6 10  1  0
  8 11  1  0
  9 12  1  0
 10 13  1  0
 12 13  1  0
 11 14  1  0
 14 15  1  0
 15 16  2  0
 15 17  1  0
 17 18  1  0
 18 19  2  0
 18 20  1  0
 19 21  1  0
 20 22  2  0
 21 22  1  0
 20 23  1  0
 22 24  1  0
 23 25  2  0
 24 26  2  0
 25 26  1  0
M  END
