mac-x0284-mac-x0472
     RDKit          3D

 25 27  0  0  0  0  0  0  0  0999 V2000
   -3.7760   15.7240    1.7860 C   0  0  0  0  0  0  0  0  0  0  0  0
   -3.3400   15.4150    0.4090 C   0  0  0  0  0  0  0  0  0  0  0  0
   -4.2140   15.7930   -0.5840 C   0  0  0  0  0  0  0  0  0  0  0  0
   -2.1140   14.7650    0.0980 C   0  0  0  0  0  0  0  0  0  0  0  0
   -1.8010   14.4730   -1.2520 C   0  0  0  0  0  0  0  0  0  0  0  0
   -3.9180   15.5070   -1.8780 C   0  0  0  0  0  0  0  0  0  0  0  0
   -0.5170   13.7840   -1.6190 C   0  0  0  0  0  0  0  0  0  0  0  0
   -2.7530   14.8480   -2.2080 C   0  0  0  0  0  0  0  0  0  0  0  0
   -2.6890   14.5850   -3.6160 N   0  0  0  0  0  0  0  0  0  0  0  0
    0.0320   12.9200   -0.9430 O   0  0  0  0  0  0  0  0  0  0  0  0
    0.0210   14.1940   -2.7960 O   0  0  0  0  0  0  0  0  0  0  0  0
   -4.1130   13.9890   -3.8490 S   0  0  2  0  0  0  0  0  0  0  0  0
   -4.9570   14.2300   -4.9900 O   0  0  0  0  0  0  0  0  0  0  0  0
   -4.9820   14.6140   -2.5300 N   0  0  0  0  0  0  0  0  0  0  0  0
   -4.1590   12.2750   -3.3980 C   0  0  0  0  0  0  0  0  0  0  0  0
   -4.9220   14.1240   -1.2320 C   0  0  0  0  0  0  0  0  0  0  0  0
   -3.2060   11.3710   -3.8530 C   0  0  0  0  0  0  0  0  0  0  0  0
   -5.2040   11.8610   -2.5560 C   0  0  0  0  0  0  0  0  0  0  0  0
   -3.9170   13.3840   -0.7640 N   0  0  0  0  0  0  0  0  0  0  0  0
   -6.1260   14.3880   -0.0080 S   0  0  0  0  0  0  0  0  0  0  0  0
   -3.3070   10.0360   -3.4620 C   0  0  0  0  0  0  0  0  0  0  0  0
   -5.2930   10.5290   -2.1720 C   0  0  0  0  0  0  0  0  0  0  0  0
   -5.1710   13.4730    1.0770 C   0  0  0  0  0  0  0  0  0  0  0  0
   -4.0590   13.0160    0.5630 N   0  0  0  0  0  0  0  0  0  0  0  0
   -4.3450    9.6160   -2.6260 C   0  0  0  0  0  0  0  0  0  0  0  0
  1  2  1  0
  2  3  2  0
  2  4  1  0
  4  5  2  0
  3  6  1  0
  5  7  1  0
  5  8  1  0
  6  8  2  0
  8  9  1  0
  7 10  2  0
  7 11  1  0
  9 12  2  0
 12 13  2  0
 12 14  1  1
 12 15  1  0
 14 16  1  0
 15 17  2  0
 15 18  1  0
 16 19  2  0
 16 20  1  0
 17 21  1  0
 18 22  2  0
 20 23  1  0
 19 24  1  0
 23 24  2  0
 21 25  2  0
 22 25  1  0
M  END
