mac-x0576-mac-x0394
     RDKit          3D

 25 27  0  0  0  0  0  0  0  0999 V2000
   -0.0860   13.8730    1.1060 N   0  0  0  0  0  0  0  0  0  0  0  0
   -0.6720   15.0020    0.4520 C   0  0  2  0  0  0  0  0  0  0  0  0
   -1.8760   15.1680    1.2070 N   0  0  0  0  0  0  0  0  0  0  0  0
   -0.7750   14.9440   -0.9730 N   0  0  0  0  0  0  0  0  0  0  0  0
   -1.8120   14.3000   -1.6050 C   0  0  0  0  0  0  0  0  0  0  0  0
   -2.9250   14.2640    0.8000 C   0  0  2  0  0  0  0  0  0  0  0  0
   -1.7980   14.1970   -2.9490 N   0  0  0  0  0  0  0  0  0  0  0  0
   -2.9680   13.7750   -0.7110 C   0  0  1  0  0  0  0  0  0  0  0  0
   -4.1290   14.8080    1.3850 N   0  0  0  0  0  0  0  0  0  0  0  0
   -5.2420   14.9940    0.6330 C   0  0  0  0  0  0  0  0  0  0  0  0
   -4.2490   14.1280   -1.4070 N   0  0  0  0  0  0  0  0  0  0  0  0
   -0.8560   14.9170   -3.7030 C   0  0  0  0  0  0  0  0  0  0  0  0
   -6.3660   14.9210    1.1290 O   0  0  0  0  0  0  0  0  0  0  0  0
   -4.9760   15.2680   -0.8250 C   0  0  0  0  0  0  0  0  0  0  0  0
    0.5580   14.8230   -3.7930 C   0  0  0  0  0  0  0  0  0  0  0  0
   -1.5110   15.8960   -4.4360 C   0  0  0  0  0  0  0  0  0  0  0  0
   -3.2150   15.9270   -4.3990 Cl  0  0  0  0  0  0  0  0  0  0  0  0
    1.4450   13.7860   -3.1210 C   0  0  0  0  0  0  0  0  0  0  0  0
   -0.8820   16.8400   -5.1790 C   0  0  0  0  0  0  0  0  0  0  0  0
    1.2010   15.8100   -4.5710 C   0  0  0  0  0  0  0  0  0  0  0  0
    0.7580   12.5550   -2.5840 C   0  0  0  0  0  0  0  0  0  0  0  0
    0.4700   16.8150   -5.2270 C   0  0  0  0  0  0  0  0  0  0  0  0
    1.1800   18.0780   -6.1260 Cl  0  0  0  0  0  0  0  0  0  0  0  0
    0.4940   11.6250   -3.5290 O   0  0  0  0  0  0  0  0  0  0  0  0
    0.4530   12.3580   -1.4210 O   0  0  0  0  0  0  0  0  0  0  0  0
  2  1  1  1
  2  3  1  0
  2  4  1  0
  4  5  1  0
  6  3  1  6
  5  7  2  3
  5  8  1  0
  6  8  1  0
  6  9  1  0
  9 10  1  0
  8 11  1  6
  7 12  1  0
 10 13  2  0
 10 14  1  0
 11 14  1  0
 12 15  2  0
 12 16  1  0
 16 17  1  0
 15 18  1  0
 16 19  2  0
 15 20  1  0
 18 21  1  0
 19 22  1  0
 20 22  2  0
 22 23  1  0
 21 24  1  0
 21 25  2  0
M  END
