mac-x0321-mac-x0361
     RDKit          3D

 12 12  0  0  0  0  0  0  0  0999 V2000
   -4.8270   15.0850    1.2690 C   0  0  0  0  0  0  0  0  0  0  0  0
   -6.2750   14.6730    1.5230 C   0  0  0  0  0  0  0  0  0  0  0  0
   -7.1670   14.5590    0.6650 O   0  0  0  0  0  0  0  0  0  0  0  0
   -4.5620   15.1050   -0.1900 C   0  0  0  0  0  0  0  0  0  0  0  0
   -3.2980   14.8610   -0.7340 C   0  0  0  0  0  0  0  0  0  0  0  0
   -5.6400   15.3660   -1.0260 C   0  0  0  0  0  0  0  0  0  0  0  0
   -3.1380   14.8790   -2.1220 C   0  0  0  0  0  0  0  0  0  0  0  0
   -5.4770   15.3790   -2.3920 C   0  0  0  0  0  0  0  0  0  0  0  0
   -1.8310   14.6240   -2.7650 C   0  0  0  0  0  0  0  0  0  0  0  0
   -4.2280   15.1380   -2.9480 C   0  0  0  0  0  0  0  0  0  0  0  0
   -0.8140   14.5310   -1.8860 O   0  0  0  0  0  0  0  0  0  0  0  0
   -1.7020   14.5090   -3.9690 O   0  0  0  0  0  0  0  0  0  0  0  0
  1  2  1  0
  2  3  2  0
  1  4  1  0
  4  5  2  0
  4  6  1  0
  5  7  1  0
  6  8  2  0
  7  9  1  0
  7 10  2  0
  8 10  1  0
  9 11  1  0
  9 12  2  0
M  END
