mac-x0415-diamond-x0471_0_A
     RDKit          3D

 32 35  0  0  0  0  0  0  0  0999 V2000
    0.1130   11.1470   -2.8250 O   0  0  0  0  0  0  0  0  0  0  0  0
    0.7520   12.3370   -2.7880 C   0  0  0  0  0  0  0  0  0  0  0  0
    0.8420   12.9460   -1.7410 O   0  0  0  0  0  0  0  0  0  0  0  0
    1.2840   12.7510   -4.1380 C   0  0  0  0  0  0  0  0  0  0  0  0
    0.9460   14.1490   -4.4520 C   0  0  0  0  0  0  0  0  0  0  0  0
    1.8230   15.2970   -4.2400 C   0  0  0  0  0  0  0  0  0  0  0  0
   -0.1300   14.7650   -4.8970 C   0  0  0  0  0  0  0  0  0  0  0  0
    1.3880   16.4850   -4.5320 N   0  0  0  0  0  0  0  0  0  0  0  0
    0.0970   16.2260   -5.1120 C   0  0  2  0  0  0  0  0  0  0  0  0
   -1.4180   14.2270   -5.1860 C   0  0  0  0  0  0  0  0  0  0  0  0
   -1.0510   17.0710   -4.7350 C   0  0  0  0  0  0  0  0  0  0  0  0
   -2.4600   15.0800   -5.0720 C   0  0  0  0  0  0  0  0  0  0  0  0
   -3.7570   14.6410   -5.2590 O   0  0  0  0  0  0  0  0  0  0  0  0
   -2.2680   16.4950   -4.7270 C   0  0  0  0  0  0  0  0  0  0  0  0
   -4.6000   14.9520   -4.1170 C   0  0  0  0  0  0  0  0  0  0  0  0
   -4.7830   13.8660   -3.0630 C   0  0  0  0  0  0  0  0  0  0  0  0
   -4.5980   14.3450   -1.6240 C   0  0  0  0  0  0  0  0  0  0  0  0
   -5.5960   14.4460   -0.6050 C   0  0  0  0  0  0  0  0  0  0  0  0
   -3.3090   14.7260   -1.1990 C   0  0  0  0  0  0  0  0  0  0  0  0
   -6.9640   14.1970   -0.5590 N   0  0  0  0  0  0  0  0  0  0  0  0
   -5.3210   14.8660    0.6990 C   0  0  0  0  0  0  0  0  0  0  0  0
   -3.0330   15.1490    0.1050 C   0  0  0  0  0  0  0  0  0  0  0  0
   -7.4200   14.4620    0.7270 C   0  0  0  0  0  0  0  0  0  0  0  0
   -6.4400   14.8620    1.4850 N   0  0  0  0  0  0  0  0  0  0  0  0
   -4.0280   15.2230    1.0640 C   0  0  0  0  0  0  0  0  0  0  0  0
   -8.8390   14.3100    1.1710 C   0  0  0  0  0  0  0  0  0  0  0  0
   -8.8370   13.9690    2.5900 N   0  0  0  0  0  0  0  0  0  0  0  0
   -8.9500   14.9270    3.5780 C   0  0  0  0  0  0  0  0  0  0  0  0
   -9.2550   16.0940    3.3350 O   0  0  0  0  0  0  0  0  0  0  0  0
   -8.6750   14.4240    5.0030 C   0  0  0  0  0  0  0  0  0  0  0  0
   -9.9100   13.6820    5.5490 C   0  0  0  0  0  0  0  0  0  0  0  0
   -8.2860   15.5500    5.9620 C   0  0  0  0  0  0  0  0  0  0  0  0
  1  2  1  0
  2  3  2  0
  2  4  1  0
  4  5  1  0
  5  6  1  0
  5  7  2  0
  6  8  2  0
  7  9  1  0
  8  9  1  0
  7 10  1  0
  9 11  1  1
 10 12  2  0
 12 13  1  0
 11 14  2  0
 12 14  1  0
 13 15  1  0
 15 16  1  0
 16 17  1  0
 17 18  1  0
 17 19  2  0
 18 20  1  0
 18 21  2  0
 19 22  1  0
 20 23  1  0
 21 24  1  0
 23 24  2  0
 21 25  1  0
 22 25  2  0
 23 26  1  0
 26 27  1  0
 27 28  1  0
 28 29  2  0
 28 30  1  0
 30 31  1  0
 30 32  1  0
M  END
