mac-x0396-diamond-x0962_0_A
     RDKit          3D

 15 16  0  0  0  0  0  0  0  0999 V2000
   -3.5730   13.5760   -3.1610 N   0  0  0  0  0  0  0  0  0  0  0  0
   -4.1630   14.6550   -2.3650 C   0  0  2  0  0  0  0  0  0  0  0  0
   -3.2680   14.9620   -1.2340 N   0  0  0  0  0  0  0  0  0  0  0  0
   -5.5550   14.2920   -1.8520 C   0  0  0  0  0  0  0  0  0  0  0  0
   -1.9230   14.3620   -1.4400 N   0  0  0  0  0  0  0  0  0  0  0  0
   -6.6740   15.1130   -1.9980 C   0  0  0  0  0  0  0  0  0  0  0  0
   -5.7610   13.0690   -1.1850 C   0  0  0  0  0  0  0  0  0  0  0  0
   -3.8380   14.4980    0.0240 C   0  0  1  0  0  0  0  0  0  0  0  0
   -7.9180   14.8090   -1.5450 N   0  0  0  0  0  0  0  0  0  0  0  0
   -7.0290   12.7300   -0.7070 C   0  0  0  0  0  0  0  0  0  0  0  0
   -3.0590   14.9520    1.1930 N   0  0  0  0  0  0  0  0  0  0  0  0
   -5.2230   15.1160    0.2690 C   0  0  0  0  0  0  0  0  0  0  0  0
   -8.0640   13.6260   -0.9100 C   0  0  0  0  0  0  0  0  0  0  0  0
   -4.0260   15.6650    2.0180 C   0  0  0  0  0  0  0  0  0  0  0  0
   -5.2930   15.0700    1.7130 N   0  0  0  0  0  0  0  0  0  0  0  0
  2  1  1  1
  2  3  1  0
  2  4  1  0
  3  5  1  0
  4  6  2  0
  4  7  1  0
  8  3  1  6
  6  9  1  0
  7 10  2  0
  8 11  1  0
  8 12  1  0
  9 13  2  0
 10 13  1  0
 11 14  1  0
 12 15  1  0
 14 15  1  0
M  END
