mac-x0131-diamond-x1015_0_A
     RDKit          3D

 26 29  0  0  0  0  0  0  0  0999 V2000
   -3.6670   15.1670   -4.2210 C   0  0  0  0  0  0  0  0  0  0  0  0
   -3.1390   15.0770   -2.8300 C   0  0  0  0  0  0  0  0  0  0  0  0
   -3.8060   15.1280   -1.6070 C   0  0  0  0  0  0  0  0  0  0  0  0
   -1.8000   14.9340   -2.5750 N   0  0  0  0  0  0  0  0  0  0  0  0
   -5.2670   15.2980   -1.3970 C   0  0  0  0  0  0  0  0  0  0  0  0
   -0.7470   14.8920   -3.5850 C   0  0  0  0  0  0  0  0  0  0  0  0
   -2.8150   14.9930   -0.5740 C   0  0  0  0  0  0  0  0  0  0  0  0
   -1.5870   14.8650   -1.2060 C   0  0  0  0  0  0  0  0  0  0  0  0
   -2.8070   14.9760    0.8380 C   0  0  0  0  0  0  0  0  0  0  0  0
   -0.3950   14.7180   -0.5940 N   0  0  0  0  0  0  0  0  0  0  0  0
   -0.3080   13.5710   -4.1670 C   0  0  1  0  0  0  0  0  0  0  0  0
   -3.9560   15.1280    1.5970 N   0  0  0  0  0  0  0  0  0  0  0  0
   -1.6330   14.8180    1.4940 N   0  0  0  0  0  0  0  0  0  0  0  0
   -0.5140   14.7030    0.7520 C   0  0  0  0  0  0  0  0  0  0  0  0
    0.5170   12.8040   -3.2050 C   0  0  0  0  0  0  0  0  0  0  0  0
   -1.3880   12.6550   -4.4540 O   0  0  0  0  0  0  0  0  0  0  0  0
    1.3090   13.2520   -2.3970 O   0  0  0  0  0  0  0  0  0  0  0  0
   -0.7290   11.3970   -4.6550 C   0  0  2  0  0  0  0  0  0  0  0  0
    0.1540   11.3700   -3.4250 C   0  0  0  0  0  0  0  0  0  0  0  0
    0.4920   10.4390   -2.7230 O   0  0  0  0  0  0  0  0  0  0  0  0
    0.0910   11.5030   -5.9300 C   0  0  0  0  0  0  0  0  0  0  0  0
   -1.7110   10.2620   -4.7010 C   0  0  0  0  0  0  0  0  0  0  0  0
   -0.3110   10.9440   -7.0910 C   0  0  0  0  0  0  0  0  0  0  0  0
   -2.1060    9.7040   -5.8640 C   0  0  0  0  0  0  0  0  0  0  0  0
   -1.6020   10.1780   -7.2070 C   0  0  2  0  0  0  0  0  0  0  0  0
   -1.4060    8.7830   -8.3020 Cl  0  0  0  0  0  0  0  0  0  0  0  0
  1  2  1  0
  2  3  2  0
  2  4  1  0
  3  5  1  0
  4  6  1  0
  3  7  1  0
  4  8  1  0
  7  8  2  0
  7  9  1  0
  8 10  1  0
 11  6  1  1
  9 12  1  0
  9 13  2  0
 10 14  2  0
 13 14  1  0
 11 15  1  0
 11 16  1  0
 15 17  2  0
 18 16  1  0
 15 19  1  0
 18 19  1  0
 19 20  2  0
 18 21  1  6
 18 22  1  0
 21 23  2  0
 22 24  2  0
 23 25  1  0
 24 25  1  0
 25 26  1  6
M  END
