mac-x0190-mac-x0333
     RDKit          3D

 12 13  0  0  0  0  0  0  0  0999 V2000
   -9.1460   15.0590    2.4820 O   0  0  0  0  0  0  0  0  0  0  0  0
   -9.0030   14.3180    1.2730 C   0  0  0  0  0  0  0  0  0  0  0  0
   -7.6240   14.5430    0.7770 C   0  0  0  0  0  0  0  0  0  0  0  0
   -7.3550   14.7490   -0.5530 N   0  0  0  0  0  0  0  0  0  0  0  0
   -6.5170   14.5750    1.4880 N   0  0  0  0  0  0  0  0  0  0  0  0
   -6.0010   14.9180   -0.6970 C   0  0  0  0  0  0  0  0  0  0  0  0
   -5.5030   14.8050    0.5930 C   0  0  0  0  0  0  0  0  0  0  0  0
   -5.1930   15.1490   -1.8120 C   0  0  0  0  0  0  0  0  0  0  0  0
   -4.1220   14.9300    0.8150 C   0  0  0  0  0  0  0  0  0  0  0  0
   -3.8220   15.2560   -1.5680 C   0  0  0  0  0  0  0  0  0  0  0  0
   -3.2920   15.1520   -0.2830 C   0  0  0  0  0  0  0  0  0  0  0  0
   -2.9330   15.4670   -2.5950 O   0  0  0  0  0  0  0  0  0  0  0  0
  1  2  1  0
  2  3  1  0
  3  4  1  0
  3  5  2  0
  4  6  1  0
  5  7  1  0
  6  7  2  0
  6  8  1  0
  7  9  1  0
  8 10  2  0
  9 11  2  0
 10 11  1  0
 10 12  1  0
M  END
