mac-x0190-mac-x0115
     RDKit          3D

 26 29  0  0  0  0  0  0  0  0999 V2000
   -9.3460   14.5880    2.4260 O   0  0  0  0  0  0  0  0  0  0  0  0
   -8.7240   13.7680    1.4300 C   0  0  0  0  0  0  0  0  0  0  0  0
   -7.6290   14.5900    0.7240 C   0  0  2  0  0  0  0  0  0  0  0  0
   -7.1790   14.1100   -0.5780 N   0  0  0  0  0  0  0  0  0  0  0  0
   -6.4000   14.6880    1.5640 N   0  0  0  0  0  0  0  0  0  0  0  0
   -5.9350   14.8720   -0.6660 C   0  0  1  0  0  0  0  0  0  0  0  0
   -5.2730   14.4870    0.6260 C   0  0  1  0  0  0  0  0  0  0  0  0
   -4.9770   14.6680   -1.8020 C   0  0  0  0  0  0  0  0  0  0  0  0
   -4.0140   15.3280    0.9570 C   0  0  0  0  0  0  0  0  0  0  0  0
   -3.7660   15.5640   -1.6370 C   0  0  1  0  0  0  0  0  0  0  0  0
   -3.0780   15.6170   -0.2600 C   0  0  2  0  0  0  0  0  0  0  0  0
   -1.9620   14.5740   -0.4470 C   0  0  2  0  0  0  0  0  0  0  0  0
   -2.6300   15.4510   -2.6500 C   0  0  0  0  0  0  0  0  0  0  0  0
   -0.7640   14.7520    0.4670 C   0  0  0  0  0  0  0  0  0  0  0  0
   -1.5910   14.5600   -1.9610 C   0  0  1  0  0  0  0  0  0  0  0  0
   -0.9010   14.8890    1.6840 O   0  0  0  0  0  0  0  0  0  0  0  0
   -0.1920   14.7930   -2.3550 N   0  0  0  0  0  0  0  0  0  0  0  0
    0.4870   14.7170   -0.1110 N   0  0  0  0  0  0  0  0  0  0  0  0
    0.0940   14.5510   -3.7990 C   0  0  0  0  0  0  0  0  0  0  0  0
    0.8140   14.5560   -1.4340 C   0  0  0  0  0  0  0  0  0  0  0  0
    0.5510   15.7810   -4.5980 C   0  0  0  0  0  0  0  0  0  0  0  0
    2.3840   14.0900   -1.8070 S   0  0  0  0  0  0  0  0  0  0  0  0
   -0.6090   16.3540   -5.2180 O   0  0  0  0  0  0  0  0  0  0  0  0
   -0.4340   17.6530   -5.8000 C   0  0  0  0  0  0  0  0  0  0  0  0
   -1.4370   18.6310   -5.2270 C   0  0  0  0  0  0  0  0  0  0  0  0
    0.9930   18.0990   -5.5300 C   0  0  0  0  0  0  0  0  0  0  0  0
  1  2  1  0
  3  2  1  1
  3  4  1  0
  3  5  1  0
  4  6  1  0
  5  7  1  0
  6  7  1  0
  6  8  1  6
  7  9  1  1
 10  8  1  1
 11  9  1  1
 10 11  1  0
 11 12  1  0
 10 13  1  0
 12 14  1  1
 12 15  1  0
 15 13  1  6
 14 16  2  0
 15 17  1  0
 14 18  1  0
 17 19  1  0
 17 20  1  0
 18 20  1  0
 19 21  1  0
 20 22  2  0
 21 23  1  0
 23 24  1  0
 24 25  1  0
 24 26  1  0
M  END
