mac-x0190-mac-x0178
     RDKit          3D

 27 29  0  0  0  0  0  0  0  0999 V2000
   -9.1230   15.0860    2.4840 O   0  0  0  0  0  0  0  0  0  0  0  0
   -8.9070   14.2060    1.3850 C   0  0  0  0  0  0  0  0  0  0  0  0
   -7.5610   14.5070    0.8290 C   0  0  0  0  0  0  0  0  0  0  0  0
   -7.3140   14.6370   -0.5100 N   0  0  0  0  0  0  0  0  0  0  0  0
   -6.4530   14.6830    1.5260 N   0  0  0  0  0  0  0  0  0  0  0  0
   -5.9790   14.9080   -0.6810 C   0  0  0  0  0  0  0  0  0  0  0  0
   -5.4590   14.9350    0.6040 C   0  0  0  0  0  0  0  0  0  0  0  0
   -5.2110   15.1210   -1.8210 C   0  0  0  0  0  0  0  0  0  0  0  0
   -4.0900   15.1970    0.7870 C   0  0  0  0  0  0  0  0  0  0  0  0
   -3.8380   15.3720   -1.6470 C   0  0  0  0  0  0  0  0  0  0  0  0
   -3.2880   15.4140   -0.3490 C   0  0  0  0  0  0  0  0  0  0  0  0
   -2.9710   15.5840   -2.8800 C   0  0  0  0  0  0  0  0  0  0  0  0
   -3.6450   15.0960   -4.1760 C   0  0  0  0  0  0  0  0  0  0  0  0
   -3.4000   15.9410   -5.4300 C   0  0  0  0  0  0  0  0  0  0  0  0
   -2.7200   17.2100   -5.0940 N   0  0  0  0  0  0  0  0  0  0  0  0
   -1.3980   17.3560   -5.7080 S   0  0  2  0  0  0  0  0  0  0  0  0
   -0.8500   18.7650   -5.0720 N   0  0  0  0  0  0  0  0  0  0  0  0
   -1.1550   17.5780   -7.0910 O   0  0  0  0  0  0  0  0  0  0  0  0
   -0.6820   15.9770   -4.8870 C   0  0  0  0  0  0  0  0  0  0  0  0
    0.4280   16.1560   -4.0700 C   0  0  0  0  0  0  0  0  0  0  0  0
   -1.2690   14.7170   -5.0450 C   0  0  0  0  0  0  0  0  0  0  0  0
    0.9410   15.0520   -3.3930 C   0  0  0  0  0  0  0  0  0  0  0  0
   -0.7560   13.6200   -4.3680 C   0  0  0  0  0  0  0  0  0  0  0  0
    0.3460   13.7910   -3.5340 C   0  0  0  0  0  0  0  0  0  0  0  0
    0.8610   12.6170   -2.8070 C   0  0  0  0  0  0  0  0  0  0  0  0
    1.6610   12.6810   -1.9060 O   0  0  0  0  0  0  0  0  0  0  0  0
    0.3550   11.4480   -3.2280 O   0  0  0  0  0  0  0  0  0  0  0  0
  1  2  1  0
  2  3  1  0
  3  4  1  0
  3  5  2  0
  4  6  1  0
  5  7  1  0
  6  7  2  0
  6  8  1  0
  7  9  1  0
  8 10  2  0
  9 11  2  0
 10 11  1  0
 10 12  1  0
 12 13  1  0
 13 14  1  0
 14 15  1  0
 15 16  2  0
 16 17  1  1
 16 18  2  0
 16 19  1  0
 19 20  2  0
 19 21  1  0
 20 22  1  0
 21 23  2  0
 22 24  2  0
 23 24  1  0
 24 25  1  0
 25 26  2  0
 25 27  1  0
M  END
