mac-x0190-mac-x0161
     RDKit          3D

 28 32  0  0  0  0  0  0  0  0999 V2000
   -9.1890   15.1530    2.5840 O   0  0  0  0  0  0  0  0  0  0  0  0
   -8.8850   14.0020    1.8100 C   0  0  0  0  0  0  0  0  0  0  0  0
   -7.6830   14.3210    1.0110 C   0  0  0  0  0  0  0  0  0  0  0  0
   -7.7790   15.0650   -0.1250 N   0  0  0  0  0  0  0  0  0  0  0  0
   -6.4320   13.9690    1.2410 N   0  0  0  0  0  0  0  0  0  0  0  0
   -6.5320   15.1970   -0.6490 C   0  0  0  0  0  0  0  0  0  0  0  0
   -5.7020   14.5140    0.2040 C   0  0  0  0  0  0  0  0  0  0  0  0
   -6.0890   15.8370   -1.7770 C   0  0  0  0  0  0  0  0  0  0  0  0
   -4.3340   14.4740   -0.1170 C   0  0  0  0  0  0  0  0  0  0  0  0
   -4.7300   15.7820   -2.0420 C   0  0  0  0  0  0  0  0  0  0  0  0
   -3.8900   15.1300   -1.2340 C   0  0  0  0  0  0  0  0  0  0  0  0
   -3.3210   13.7250    0.5910 C   0  0  1  0  0  0  0  0  0  0  0  0
   -3.3640   12.7180   -0.4610 N   0  0  0  0  0  0  0  0  0  0  0  0
   -1.8620   14.1580    0.6570 C   0  0  1  0  0  0  0  0  0  0  0  0
   -2.9910   13.2200   -1.7930 C   0  0  0  0  0  0  0  0  0  0  0  0
   -1.5690   14.7520   -0.6700 C   0  0  2  0  0  0  0  0  0  0  0  0
   -1.3600   15.1650    1.5290 N   0  0  0  0  0  0  0  0  0  0  0  0
   -1.7410   13.9480   -1.7820 N   0  0  0  0  0  0  0  0  0  0  0  0
   -0.1740   15.1360   -0.5130 N   0  0  0  0  0  0  0  0  0  0  0  0
   -0.1240   15.5300    0.8800 C   0  0  0  0  0  0  0  0  0  0  0  0
   -1.1570   14.3810   -3.0260 C   0  0  0  0  0  0  0  0  0  0  0  0
   -0.7940   13.1340   -3.6560 C   0  0  0  0  0  0  0  0  0  0  0  0
   -1.1720   12.4760   -4.7870 C   0  0  0  0  0  0  0  0  0  0  0  0
    0.1200   12.4110   -2.9620 O   0  0  0  0  0  0  0  0  0  0  0  0
    0.3520   11.2390   -3.6340 N   0  0  0  0  0  0  0  0  0  0  0  0
   -0.4270   11.2980   -4.7100 C   0  0  0  0  0  0  0  0  0  0  0  0
   -0.4760   10.3030   -5.6080 O   0  0  0  0  0  0  0  0  0  0  0  0
   -1.7790   10.1060   -6.1370 C   0  0  0  0  0  0  0  0  0  0  0  0
  1  2  1  0
  2  3  1  0
  3  4  1  0
  3  5  2  0
  4  6  1  0
  5  7  1  0
  6  7  2  0
  6  8  1  0
  7  9  1  0
  8 10  2  0
  9 11  2  0
 10 11  1  0
 12  9  1  6
 12 13  1  0
 12 14  1  0
 13 15  1  0
 14 16  1  0
 14 17  1  1
 15 18  1  0
 16 18  1  0
 16 19  1  1
 17 20  1  0
 19 20  1  0
 18 21  1  0
 21 22  1  0
 22 23  2  0
 22 24  1  0
 24 25  1  0
 23 26  1  0
 25 26  2  0
 26 27  1  0
 27 28  1  0
M  END
