mac-x0412-mac-x0397
     RDKit          3D

 12 13  0  0  0  0  0  0  0  0999 V2000
   -7.8130   14.3490   -0.5430 O   0  0  0  0  0  0  0  0  0  0  0  0
   -6.8900   14.7920    0.1210 C   0  0  0  0  0  0  0  0  0  0  0  0
   -6.9750   14.7880    1.5040 N   0  0  0  0  0  0  0  0  0  0  0  0
   -5.6080   15.4090   -0.5160 C   0  0  1  0  0  0  0  0  0  0  0  0
   -4.3930   15.0650    0.3400 C   0  0  0  0  0  0  0  0  0  0  0  0
   -5.8750   14.7870    2.1780 C   0  0  0  0  0  0  0  0  0  0  0  0
   -5.3950   15.0480   -1.9430 C   0  0  0  0  0  0  0  0  0  0  0  0
   -6.8140   14.8800   -2.8950 Cl  0  0  0  0  0  0  0  0  0  0  0  0
   -4.5080   14.7670    1.6270 C   0  0  0  0  0  0  0  0  0  0  0  0
   -3.1020   15.0750   -0.3110 C   0  0  0  0  0  0  0  0  0  0  0  0
   -4.1840   14.8540   -2.4730 C   0  0  0  0  0  0  0  0  0  0  0  0
   -3.0090   14.9800   -1.6480 C   0  0  0  0  0  0  0  0  0  0  0  0
  1  2  2  0
  2  3  1  0
  4  2  1  1
  4  5  1  0
  3  6  2  0
  4  7  1  0
  7  8  1  0
  5  9  2  0
  6  9  1  0
  5 10  1  0
  7 11  2  0
 10 12  2  0
 11 12  1  0
M  END
