mac-x0224-mac-x0231
     RDKit          3D

 26 28  0  0  0  0  0  0  0  0999 V2000
   -5.1870   14.8150    1.6200 C   0  0  0  0  0  0  0  0  0  0  0  0
   -3.4420   15.2820    1.5640 S   0  0  0  0  0  0  0  0  0  0  0  0
   -3.1320   15.1010   -0.1610 C   0  0  0  0  0  0  0  0  0  0  0  0
   -1.9050   14.5560   -0.5360 C   0  0  0  0  0  0  0  0  0  0  0  0
   -4.0760   15.4840   -1.1170 C   0  0  0  0  0  0  0  0  0  0  0  0
   -1.6270   14.3900   -1.8780 C   0  0  0  0  0  0  0  0  0  0  0  0
   -3.7920   15.3160   -2.4570 C   0  0  0  0  0  0  0  0  0  0  0  0
   -0.3820   13.8050   -2.3740 C   0  0  0  0  0  0  0  0  0  0  0  0
   -2.5810   14.7740   -2.8190 C   0  0  0  0  0  0  0  0  0  0  0  0
   -2.3940   14.6370   -4.1410 O   0  0  0  0  0  0  0  0  0  0  0  0
   -0.4950   12.5840   -2.6830 N   0  0  0  0  0  0  0  0  0  0  0  0
    0.7180   14.5590   -2.5000 O   0  0  0  0  0  0  0  0  0  0  0  0
    0.4950   11.7050   -3.2630 C   0  0  2  0  0  0  0  0  0  0  0  0
    0.8700   10.5880   -2.4740 O   0  0  0  0  0  0  0  0  0  0  0  0
    1.5880   12.4610   -4.0580 C   0  0  0  0  0  0  0  0  0  0  0  0
    1.1780   13.8940   -4.3670 C   0  0  0  0  0  0  0  0  0  0  0  0
   -0.2040   14.2010   -4.8440 C   0  0  0  0  0  0  0  0  0  0  0  0
    2.0620   14.8180   -4.1550 N   0  0  0  0  0  0  0  0  0  0  0  0
   -0.5660   15.5530   -4.9240 C   0  0  0  0  0  0  0  0  0  0  0  0
    1.7040   16.1080   -4.3840 N   0  0  0  0  0  0  0  0  0  0  0  0
   -1.1440   13.2210   -5.2010 C   0  0  0  0  0  0  0  0  0  0  0  0
    0.4290   16.5740   -4.5720 C   0  0  0  0  0  0  0  0  0  0  0  0
   -1.8590   15.9330   -5.3370 C   0  0  0  0  0  0  0  0  0  0  0  0
   -2.4300   13.5940   -5.6200 C   0  0  0  0  0  0  0  0  0  0  0  0
    0.1330   17.7620   -4.4720 O   0  0  0  0  0  0  0  0  0  0  0  0
   -2.7930   14.9470   -5.6850 C   0  0  0  0  0  0  0  0  0  0  0  0
  1  2  1  0
  2  3  1  0
  3  4  2  0
  3  5  1  0
  4  6  1  0
  5  7  2  0
  6  8  1  0
  6  9  2  0
  7  9  1  0
  9 10  1  0
  8 11  2  3
  8 12  1  0
 11 13  1  0
 13 14  1  1
 13 15  1  0
 15 16  1  0
 16 17  1  0
 16 18  2  0
 17 19  2  0
 18 20  1  0
 17 21  1  0
 19 22  1  0
 20 22  1  0
 19 23  1  0
 21 24  2  0
 22 25  2  0
 23 26  2  0
 24 26  1  0
M  END
