mac-x0346-mac-x0546
     RDKit          3D

 28 30  0  0  0  0  0  0  0  0999 V2000
   -7.5740   14.7220    1.5490 O   0  0  0  0  0  0  0  0  0  0  0  0
   -7.6800   14.4100    0.1770 N   0  0  0  0  0  0  0  0  0  0  0  0
   -6.7450   14.9520   -0.6730 C   0  0  0  0  0  0  0  0  0  0  0  0
   -7.0920   15.3380   -1.7860 O   0  0  0  0  0  0  0  0  0  0  0  0
   -5.3040   15.0320   -0.2590 C   0  0  0  0  0  0  0  0  0  0  0  0
   -4.2700   15.0360   -1.1980 C   0  0  0  0  0  0  0  0  0  0  0  0
   -4.9860   15.1000    1.1160 C   0  0  0  0  0  0  0  0  0  0  0  0
   -4.6550   14.9800   -2.5080 O   0  0  0  0  0  0  0  0  0  0  0  0
   -2.9470   15.0940   -0.7580 C   0  0  0  0  0  0  0  0  0  0  0  0
   -3.6610   15.1650    1.5360 C   0  0  0  0  0  0  0  0  0  0  0  0
   -3.8300   14.3830   -3.4980 C   0  0  0  0  0  0  0  0  0  0  0  0
   -2.6420   15.1580    0.6070 C   0  0  0  0  0  0  0  0  0  0  0  0
   -4.5960   14.2510   -4.8100 C   0  0  0  0  0  0  0  0  0  0  0  0
   -4.1600   15.2890   -5.8360 C   0  0  0  0  0  0  0  0  0  0  0  0
   -3.4560   16.3600   -5.1930 O   0  0  0  0  0  0  0  0  0  0  0  0
   -2.1060   16.2190   -5.2570 C   0  0  0  0  0  0  0  0  0  0  0  0
   -1.5200   15.0120   -5.1130 C   0  0  0  0  0  0  0  0  0  0  0  0
   -1.3250   17.4290   -5.4980 C   0  0  0  0  0  0  0  0  0  0  0  0
   -0.0440   14.9130   -5.2280 C   0  0  1  0  0  0  0  0  0  0  0  0
    0.0020   17.4780   -5.2710 C   0  0  0  0  0  0  0  0  0  0  0  0
    0.5660   16.2120   -4.7640 C   0  0  0  0  0  0  0  0  0  0  0  0
    0.7930   14.0090   -4.4080 C   0  0  0  0  0  0  0  0  0  0  0  0
    0.6300   12.5340   -4.4090 C   0  0  0  0  0  0  0  0  0  0  0  0
    1.5430   16.0910   -3.9410 N   0  0  0  0  0  0  0  0  0  0  0  0
    1.6770   14.7460   -3.7370 C   0  0  0  0  0  0  0  0  0  0  0  0
    0.5440   12.0060   -2.9920 C   0  0  0  0  0  0  0  0  0  0  0  0
    0.9980   12.5990   -2.0270 O   0  0  0  0  0  0  0  0  0  0  0  0
   -0.0840   10.8140   -2.8720 O   0  0  0  0  0  0  0  0  0  0  0  0
  1  2  1  0
  2  3  1  0
  3  4  2  0
  3  5  1  0
  5  6  2  0
  5  7  1  0
  6  8  1  0
  6  9  1  0
  7 10  2  0
  8 11  1  0
  9 12  2  0
 10 12  1  0
 11 13  1  0
 13 14  1  0
 14 15  1  0
 15 16  1  0
 16 17  2  0
 16 18  1  0
 19 17  1  1
 18 20  2  0
 19 21  1  0
 20 21  1  0
 19 22  1  0
 22 23  1  0
 21 24  2  0
 22 25  2  0
 24 25  1  0
 23 26  1  0
 26 27  2  0
 26 28  1  0
M  END
