mac-x0213-mac-x0375
     RDKit          3D

 20 22  0  0  0  0  0  0  0  0999 V2000
   -0.2010   11.6370   -3.4630 O   0  0  0  0  0  0  0  0  0  0  0  0
    0.6220   12.7500   -3.7070 C   0  0  0  0  0  0  0  0  0  0  0  0
    1.7170   12.5870   -2.8170 O   0  0  0  0  0  0  0  0  0  0  0  0
    1.0060   12.7310   -5.2160 C   0  0  0  0  0  0  0  0  0  0  0  0
   -0.0380   14.0850   -3.3950 C   0  0  0  0  0  0  0  0  0  0  0  0
    0.8950   11.4350   -5.8050 O   0  0  0  0  0  0  0  0  0  0  0  0
   -1.4160   14.3550   -4.0470 C   0  0  0  0  0  0  0  0  0  0  0  0
    0.9210   15.2240   -3.8160 C   0  0  0  0  0  0  0  0  0  0  0  0
   -1.2680   15.7180   -4.6350 C   0  0  0  0  0  0  0  0  0  0  0  0
    0.0330   16.2030   -4.5080 C   0  0  0  0  0  0  0  0  0  0  0  0
   -0.2990   10.7850   -6.0050 C   0  0  0  0  0  0  0  0  0  0  0  0
   -2.2540   16.4740   -5.2480 C   0  0  0  0  0  0  0  0  0  0  0  0
    0.3820   17.4500   -4.9900 C   0  0  0  0  0  0  0  0  0  0  0  0
   -0.4140    9.5270   -6.6030 C   0  0  0  0  0  0  0  0  0  0  0  0
   -1.4560   11.4330   -5.5790 C   0  0  0  0  0  0  0  0  0  0  0  0
   -1.9100   17.7330   -5.7380 C   0  0  0  0  0  0  0  0  0  0  0  0
   -0.6040   18.2170   -5.6110 C   0  0  0  0  0  0  0  0  0  0  0  0
   -1.6580    8.9250   -6.7690 C   0  0  0  0  0  0  0  0  0  0  0  0
   -2.7030   10.8300   -5.7500 C   0  0  0  0  0  0  0  0  0  0  0  0
   -2.8070    9.5770   -6.3410 C   0  0  0  0  0  0  0  0  0  0  0  0
  2  1  1  0
  2  3  1  0
  2  4  1  0
  2  5  1  0
  4  6  1  0
  5  7  1  0
  5  8  1  0
  7  9  1  0
  8 10  1  0
  9 10  2  0
  6 11  1  0
  9 12  1  0
 10 13  1  0
 11 14  2  0
 11 15  1  0
 12 16  2  0
 13 17  2  0
 16 17  1  0
 14 18  1  0
 15 19  2  0
 18 20  2  0
 19 20  1  0
M  END
