mac-x0564-diamond-x0967_0_A
     RDKit          3D

 19 22  0  0  0  0  0  0  0  0999 V2000
    0.8070   14.5330   -1.0970 O   0  0  0  0  0  0  0  0  0  0  0  0
    0.0290   14.5790   -2.0370 C   0  0  0  0  0  0  0  0  0  0  0  0
    0.4450   14.3770   -3.3550 N   0  0  0  0  0  0  0  0  0  0  0  0
   -1.3950   14.8160   -1.9200 C   0  0  0  0  0  0  0  0  0  0  0  0
   -2.2580   14.8000   -2.9880 C   0  0  0  0  0  0  0  0  0  0  0  0
   -0.4310   14.3870   -4.3090 C   0  0  0  0  0  0  0  0  0  0  0  0
   -2.0800   15.0760   -0.7490 O   0  0  0  0  0  0  0  0  0  0  0  0
   -1.7930   14.5730   -4.2350 N   0  0  0  0  0  0  0  0  0  0  0  0
   -3.3960   15.2110   -1.1210 C   0  0  0  0  0  0  0  0  0  0  0  0
   -3.5280   15.0170   -2.4790 C   0  0  0  0  0  0  0  0  0  0  0  0
   -4.8030   15.0570   -3.0530 C   0  0  0  0  0  0  0  0  0  0  0  0
   -4.5030   15.5170   -0.1550 C   0  0  0  0  0  0  0  0  0  0  0  0
   -5.8680   14.9410   -2.2500 C   0  0  0  0  0  0  0  0  0  0  0  0
   -5.7620   14.8040   -0.7330 C   0  0  2  0  0  0  0  0  0  0  0  0
   -7.0920   15.2480   -0.3020 N   0  0  0  0  0  0  0  0  0  0  0  0
   -5.5320   13.4440   -0.1240 C   0  0  0  0  0  0  0  0  0  0  0  0
   -6.2170   12.9990    0.9430 C   0  0  0  0  0  0  0  0  0  0  0  0
   -7.6610   14.8720    0.8850 C   0  0  0  0  0  0  0  0  0  0  0  0
   -7.2570   13.7970    1.5380 C   0  0  0  0  0  0  0  0  0  0  0  0
  1  2  2  0
  2  3  1  0
  2  4  1  0
  4  5  2  0
  3  6  2  0
  4  7  1  0
  5  8  1  0
  6  8  1  0
  7  9  1  0
  5 10  1  0
  9 10  2  0
 10 11  1  0
  9 12  1  0
 11 13  2  0
 14 12  1  1
 14 13  1  0
 14 15  1  0
 14 16  1  0
 16 17  2  0
 15 18  1  0
 17 19  1  0
 18 19  2  0
M  END
