mac-x0347-mac-x0441
     RDKit          3D

 31 34  0  0  0  0  0  0  0  0999 V2000
    0.9160   14.6440   -3.2160 O   0  0  0  0  0  0  0  0  0  0  0  0
   -0.1490   13.8480   -3.0020 C   0  0  0  0  0  0  0  0  0  0  0  0
   -0.1160   12.6110   -3.0460 N   0  0  0  0  0  0  0  0  0  0  0  0
   -1.3910   14.4610   -2.8290 C   0  0  0  0  0  0  0  0  0  0  0  0
    1.0280   11.9290   -3.4420 C   0  0  2  0  0  0  0  0  0  0  0  0
   -2.0940   14.3660   -1.6530 C   0  0  0  0  0  0  0  0  0  0  0  0
   -1.8890   15.1170   -3.9260 C   0  0  0  0  0  0  0  0  0  0  0  0
    2.1410   12.1970   -2.6550 O   0  0  0  0  0  0  0  0  0  0  0  0
    1.1590   12.4820   -4.8720 C   0  0  0  0  0  0  0  0  0  0  0  0
   -3.3430   14.9440   -1.6280 C   0  0  0  0  0  0  0  0  0  0  0  0
   -3.0870   15.6920   -3.9330 N   0  0  0  0  0  0  0  0  0  0  0  0
   -3.7760   15.5740   -2.7770 C   0  0  0  0  0  0  0  0  0  0  0  0
   -4.1990   14.9000   -0.4780 C   0  0  0  0  0  0  0  0  0  0  0  0
    0.6170   11.6240   -5.9110 N   0  0  0  0  0  0  0  0  0  0  0  0
   -3.8410   15.5060    0.7250 C   0  0  0  0  0  0  0  0  0  0  0  0
   -5.4260   14.2330   -0.5770 C   0  0  0  0  0  0  0  0  0  0  0  0
    1.3170   11.5750   -7.0560 N   0  0  0  0  0  0  0  0  0  0  0  0
   -0.5070   10.8220   -5.9480 C   0  0  0  0  0  0  0  0  0  0  0  0
   -4.7020   15.4440    1.8030 C   0  0  0  0  0  0  0  0  0  0  0  0
   -6.2880   14.1680    0.5030 C   0  0  0  0  0  0  0  0  0  0  0  0
    0.6450   10.7250   -7.8440 C   0  0  0  0  0  0  0  0  0  0  0  0
   -0.4980   10.2320   -7.1920 C   0  0  0  0  0  0  0  0  0  0  0  0
   -1.5470   10.5880   -4.9080 C   0  0  0  0  0  0  0  0  0  0  0  0
    1.0600   10.3520   -9.2270 C   0  0  0  0  0  0  0  0  0  0  0  0
   -5.9250   14.7760    1.6930 C   0  0  0  0  0  0  0  0  0  0  0  0
   -1.5290    9.2720   -7.6690 C   0  0  0  0  0  0  0  0  0  0  0  0
   -2.7680    9.8740   -5.5390 C   0  0  0  0  0  0  0  0  0  0  0  0
    1.7670    9.1890   -9.2370 F   0  0  0  0  0  0  0  0  0  0  0  0
    0.0250   10.1850  -10.0850 F   0  0  0  0  0  0  0  0  0  0  0  0
    1.8380   11.2790   -9.7970 F   0  0  0  0  0  0  0  0  0  0  0  0
   -2.3510    8.7360   -6.4870 C   0  0  0  0  0  0  0  0  0  0  0  0
  1  2  1  0
  2  3  2  3
  2  4  1  0
  3  5  1  0
  4  6  2  0
  4  7  1  0
  5  8  1  1
  5  9  1  0
  6 10  1  0
  7 11  2  0
 10 12  2  0
 11 12  1  0
 10 13  1  0
  9 14  1  0
 13 15  2  0
 13 16  1  0
 14 17  1  0
 14 18  1  0
 15 19  1  0
 16 20  2  0
 17 21  2  0
 18 22  2  0
 21 22  1  0
 18 23  1  0
 21 24  1  0
 19 25  2  0
 20 25  1  0
 22 26  1  0
 23 27  1  0
 24 28  1  0
 24 29  1  0
 24 30  1  0
 26 31  1  0
 27 31  1  0
M  END
