mac-x1493-mac-x0402
     RDKit          3D

 13 14  0  0  0  0  0  0  0  0999 V2000
   -1.2270   14.7260   -1.6030 O   0  0  0  0  0  0  0  0  0  0  0  0
   -2.3020   14.8910   -2.3980 C   0  0  0  0  0  0  0  0  0  0  0  0
   -2.1830   15.0560   -3.5950 O   0  0  0  0  0  0  0  0  0  0  0  0
   -3.5730   14.8440   -1.6520 C   0  0  0  0  0  0  0  0  0  0  0  0
   -3.6610   14.9580   -0.2630 C   0  0  0  0  0  0  0  0  0  0  0  0
   -4.7480   14.6720   -2.3620 C   0  0  0  0  0  0  0  0  0  0  0  0
   -4.9170   14.8830    0.3530 C   0  0  0  0  0  0  0  0  0  0  0  0
   -5.9750   14.5980   -1.7920 N   0  0  0  0  0  0  0  0  0  0  0  0
   -6.0580   14.6960   -0.4580 C   0  0  0  0  0  0  0  0  0  0  0  0
   -5.0580   14.9850    1.7380 C   0  0  0  0  0  0  0  0  0  0  0  0
   -7.3020   14.6090    0.1500 C   0  0  0  0  0  0  0  0  0  0  0  0
   -6.3210   14.8950    2.3260 C   0  0  0  0  0  0  0  0  0  0  0  0
   -7.4430   14.7030    1.5340 C   0  0  0  0  0  0  0  0  0  0  0  0
  1  2  1  0
  2  3  2  0
  2  4  1  0
  4  5  2  0
  4  6  1  0
  5  7  1  0
  6  8  2  0
  7  9  2  0
  8  9  1  0
  7 10  1  0
  9 11  1  0
 10 12  2  0
 11 13  2  0
 12 13  1  0
M  END
