mac-x0139-mac-x0345
     RDKit          3D

 24 26  0  0  0  0  0  0  0  0999 V2000
   -2.0800   15.3720   -2.6910 C   0  0  0  0  0  0  0  0  0  0  0  0
   -1.0880   14.3460   -2.3230 N   0  0  0  0  0  0  0  0  0  0  0  0
    0.2580   14.7760   -2.7500 C   0  0  0  0  0  0  0  0  0  0  0  0
   -1.2280   13.7420   -0.9630 C   0  0  2  0  0  0  0  0  0  0  0  0
    0.8470   13.9150   -3.8670 C   0  0  0  0  0  0  0  0  0  0  0  0
   -2.5580   14.2090   -0.3060 C   0  0  2  0  0  0  0  0  0  0  0  0
   -0.0140   14.0390   -0.1970 N   0  0  0  0  0  0  0  0  0  0  0  0
    1.1610   12.5590   -3.3300 C   0  0  0  0  0  0  0  0  0  0  0  0
   -2.3890   15.3450    0.6720 C   0  0  1  0  0  0  0  0  0  0  0  0
   -0.1320   15.0010    0.8680 C   0  0  0  0  0  0  0  0  0  0  0  0
   -3.7060   13.2790    0.2200 C   0  0  0  0  0  0  0  0  0  0  0  0
    1.8910   12.3260   -2.3900 O   0  0  0  0  0  0  0  0  0  0  0  0
    0.5430   11.5570   -3.9850 O   0  0  0  0  0  0  0  0  0  0  0  0
   -1.1240   15.9730    0.5210 N   0  0  0  0  0  0  0  0  0  0  0  0
   -3.4200   16.2490    0.2530 N   0  0  0  0  0  0  0  0  0  0  0  0
   -4.8630   14.2890    0.2940 C   0  0  1  0  0  0  0  0  0  0  0  0
   -4.8450   15.1590    2.1060 Br  0  0  0  0  0  0  0  0  0  0  0  0
   -4.2480   15.3420   -0.5590 C   0  0  1  0  0  0  0  0  0  0  0  0
   -6.3730   14.0190   -0.0220 C   0  0  2  0  0  0  0  0  0  0  0  0
   -7.0140   12.8890    0.7870 C   0  0  0  0  0  0  0  0  0  0  0  0
   -5.1400   15.8000   -1.6740 C   0  0  0  0  0  0  0  0  0  0  0  0
   -6.6860   13.8740   -1.4690 N   0  0  0  0  0  0  0  0  0  0  0  0
   -5.7240   14.5440   -2.3090 C   0  0  1  0  0  0  0  0  0  0  0  0
   -6.4090   14.7640   -3.5610 N   0  0  0  0  0  0  0  0  0  0  0  0
  1  2  1  0
  2  3  1  0
  4  2  1  6
  3  5  1  0
  4  6  1  0
  4  7  1  0
  5  8  1  0
  6  9  1  0
  7 10  1  0
  6 11  1  1
  8 12  2  0
  8 13  1  0
  9 14  1  6
 10 14  1  0
  9 15  1  0
 11 16  1  0
 16 17  1  1
 15 18  1  0
 16 18  1  0
 16 19  1  0
 19 20  1  1
 18 21  1  1
 19 22  1  0
 21 23  1  0
 22 23  1  0
 23 24  1  6
M  END
