mac-x0302-mac-x0387
     RDKit          3D

 24 26  0  0  0  0  0  0  0  0999 V2000
   -4.2350   15.5740   -2.9160 C   0  0  0  0  0  0  0  0  0  0  0  0
   -4.8950   15.2830   -1.6270 C   0  0  0  0  0  0  0  0  0  0  0  0
   -4.0650   15.1050   -0.5490 C   0  0  0  0  0  0  0  0  0  0  0  0
   -4.6190   15.1360   -3.9940 O   0  0  0  0  0  0  0  0  0  0  0  0
   -6.2710   15.1730   -1.4660 C   0  0  0  0  0  0  0  0  0  0  0  0
   -6.7670   14.8690   -0.1910 C   0  0  0  0  0  0  0  0  0  0  0  0
   -4.5500   14.7970    0.7100 C   0  0  0  0  0  0  0  0  0  0  0  0
   -8.1140   14.7570   -0.0310 O   0  0  0  0  0  0  0  0  0  0  0  0
   -5.9160   14.6780    0.8990 C   0  0  0  0  0  0  0  0  0  0  0  0
   -3.5370   14.6390    1.6220 N   0  0  0  0  0  0  0  0  0  0  0  0
   -2.2480   14.6460    1.0860 C   0  0  0  0  0  0  0  0  0  0  0  0
   -2.1700   14.5290   -0.3340 C   0  0  0  0  0  0  0  0  0  0  0  0
   -1.1950   14.7820    1.8480 N   0  0  0  0  0  0  0  0  0  0  0  0
   -0.9160   14.6120   -0.9690 C   0  0  0  0  0  0  0  0  0  0  0  0
   -0.0220   14.8470    1.2330 C   0  0  0  0  0  0  0  0  0  0  0  0
   -3.3080   14.3380   -1.1460 C   0  0  0  0  0  0  0  0  0  0  0  0
    0.1810   14.7780   -0.1290 C   0  0  0  0  0  0  0  0  0  0  0  0
   -0.8500   14.5300   -2.3980 C   0  0  0  0  0  0  0  0  0  0  0  0
   -3.2300   14.2390   -2.5300 C   0  0  0  0  0  0  0  0  0  0  0  0
   -2.0090   14.3420   -3.1510 C   0  0  0  0  0  0  0  0  0  0  0  0
    0.4280   14.6410   -3.1920 C   0  0  0  0  0  0  0  0  0  0  0  0
    1.4100   13.5510   -2.9040 C   0  0  0  0  0  0  0  0  0  0  0  0
    2.4740   13.5960   -3.7360 O   0  0  0  0  0  0  0  0  0  0  0  0
    1.2860   12.7120   -2.0380 O   0  0  0  0  0  0  0  0  0  0  0  0
  1  2  1  0
  2  3  2  0
  1  4  2  0
  2  5  1  0
  5  6  2  0
  3  7  1  0
  6  8  1  0
  6  9  1  0
  7  9  2  0
  7 10  1  0
 10 11  1  0
 11 12  1  0
 11 13  2  0
 12 14  2  0
 13 15  1  0
 12 16  1  0
 14 17  1  0
 15 17  2  0
 14 18  1  0
 16 19  2  0
 18 20  2  0
 19 20  1  0
 18 21  1  0
 21 22  1  0
 22 23  1  0
 22 24  2  0
M  END
