mac-x0206-mac-x0319
     RDKit          3D

 23 24  0  0  0  0  0  0  0  0999 V2000
   -3.1740   15.2540   -0.2570 N   0  0  0  0  0  0  0  0  0  0  0  0
   -4.3780   15.1340   -0.9240 C   0  0  0  0  0  0  0  0  0  0  0  0
   -4.5230   15.2120   -2.2060 N   0  0  0  0  0  0  0  0  0  0  0  0
   -5.6100   14.9280   -0.0910 C   0  0  0  0  0  0  0  0  0  0  0  0
   -3.3210   15.5010   -2.9670 C   0  0  0  0  0  0  0  0  0  0  0  0
   -6.8790   14.7440   -0.6580 C   0  0  0  0  0  0  0  0  0  0  0  0
   -5.4850   14.9300    1.3130 C   0  0  0  0  0  0  0  0  0  0  0  0
   -7.0440   14.7360   -2.0180 O   0  0  0  0  0  0  0  0  0  0  0  0
   -2.9980   14.6940   -4.2180 C   0  0  0  0  0  0  0  0  0  0  0  0
   -8.0020   14.5660    0.1580 C   0  0  0  0  0  0  0  0  0  0  0  0
   -6.6110   14.7540    2.1280 C   0  0  0  0  0  0  0  0  0  0  0  0
   -7.8690   14.5730    1.5520 C   0  0  0  0  0  0  0  0  0  0  0  0
   -1.4900   14.7590   -4.3200 C   0  0  0  0  0  0  0  0  0  0  0  0
   -0.8070   15.9460   -4.6430 C   0  0  0  0  0  0  0  0  0  0  0  0
   -0.7600   13.6190   -4.0610 C   0  0  0  0  0  0  0  0  0  0  0  0
    0.6370   13.6230   -4.1020 C   0  0  0  0  0  0  0  0  0  0  0  0
    0.5900   15.9650   -4.6880 C   0  0  0  0  0  0  0  0  0  0  0  0
    1.3140   12.3270   -3.7800 C   0  0  0  0  0  0  0  0  0  0  0  0
    1.1860   17.1480   -4.9990 O   0  0  0  0  0  0  0  0  0  0  0  0
    1.3230   14.8080   -4.4190 C   0  0  0  0  0  0  0  0  0  0  0  0
    0.7800   11.7550   -2.4680 C   0  0  0  0  0  0  0  0  0  0  0  0
    0.3580   10.4630   -2.5310 O   0  0  0  0  0  0  0  0  0  0  0  0
    0.6960   12.3630   -1.4140 O   0  0  0  0  0  0  0  0  0  0  0  0
  1  2  1  0
  2  3  2  3
  2  4  1  0
  3  5  1  0
  4  6  2  0
  4  7  1  0
  6  8  1  0
  5  9  1  0
  6 10  1  0
  7 11  2  0
 10 12  2  0
 11 12  1  0
  9 13  1  0
 13 14  2  0
 13 15  1  0
 15 16  2  0
 14 17  1  0
 16 18  1  0
 17 19  1  0
 16 20  1  0
 17 20  2  0
 18 21  1  0
 21 22  1  0
 21 23  2  0
M  END
