mac-x0381-mac-x0148
     RDKit          3D

 34 39  0  0  0  0  0  0  0  0999 V2000
   -8.0900   13.2380    3.7020 N   0  0  0  0  0  0  0  0  0  0  0  0
   -8.2700   14.5970    3.7080 C   0  0  0  0  0  0  0  0  0  0  0  0
   -7.2540   15.3180    3.9480 N   0  0  0  0  0  0  0  0  0  0  0  0
   -9.5990   15.1420    3.3980 C   0  0  0  0  0  0  0  0  0  0  0  0
   -5.9870   14.6680    4.1290 C   0  0  0  0  0  0  0  0  0  0  0  0
   -9.6880   15.9140    2.2400 C   0  0  0  0  0  0  0  0  0  0  0  0
  -10.7070   14.9060    4.1980 C   0  0  0  0  0  0  0  0  0  0  0  0
   -5.4760   14.4740    2.7040 C   0  0  0  0  0  0  0  0  0  0  0  0
  -10.9050   16.4690    1.8530 C   0  0  0  0  0  0  0  0  0  0  0  0
  -11.9360   15.4560    3.8210 C   0  0  0  0  0  0  0  0  0  0  0  0
   -4.2260   15.2780    2.3890 C   0  0  0  0  0  0  0  0  0  0  0  0
  -12.0460   16.2360    2.6510 C   0  0  0  0  0  0  0  0  0  0  0  0
  -11.0050   17.2490    0.6910 C   0  0  0  0  0  0  0  0  0  0  0  0
  -13.2730   16.7880    2.2560 C   0  0  0  0  0  0  0  0  0  0  0  0
  -12.2330   17.7920    0.3170 C   0  0  0  0  0  0  0  0  0  0  0  0
   -3.7470   15.1300    1.0380 N   0  0  0  0  0  0  0  0  0  0  0  0
  -13.3640   17.5620    1.0950 C   0  0  0  0  0  0  0  0  0  0  0  0
   -2.4550   14.8760    0.6880 C   0  0  0  0  0  0  0  0  0  0  0  0
   -4.5180   15.2240   -0.0810 C   0  0  0  0  0  0  0  0  0  0  0  0
   -1.4740   14.7380    1.5840 N   0  0  0  0  0  0  0  0  0  0  0  0
   -2.3660   14.7910   -0.7060 C   0  0  0  0  0  0  0  0  0  0  0  0
   -3.7010   15.0180   -1.1700 C   0  0  0  0  0  0  0  0  0  0  0  0
   -0.3170   14.5080    0.9890 C   0  0  0  0  0  0  0  0  0  0  0  0
   -1.0720   14.5220   -1.2520 C   0  0  0  0  0  0  0  0  0  0  0  0
   -0.6110   14.3550   -2.5890 N   0  0  0  0  0  0  0  0  0  0  0  0
   -0.0680   14.3950   -0.3300 N   0  0  0  0  0  0  0  0  0  0  0  0
   -1.3130   14.6370   -3.8760 C   0  0  2  0  0  0  0  0  0  0  0  0
    0.4560   13.3160   -2.6260 C   0  0  0  0  0  0  0  0  0  0  0  0
   -2.7400   15.1830   -3.8890 C   0  0  0  0  0  0  0  0  0  0  0  0
   -1.6770   13.3180   -4.5240 C   0  0  1  0  0  0  0  0  0  0  0  0
    0.0510   12.0600   -3.4120 C   0  0  0  0  0  0  0  0  0  0  0  0
   -2.5850   13.7060   -5.6700 C   0  0  0  0  0  0  0  0  0  0  0  0
   -3.2200   14.9250   -5.2320 O   0  0  0  0  0  0  0  0  0  0  0  0
   -0.4910   12.4340   -4.7770 C   0  0  0  0  0  0  0  0  0  0  0  0
  1  2  1  0
  2  3  2  3
  2  4  1  0
  3  5  1  0
  4  6  2  0
  4  7  1  0
  5  8  1  0
  6  9  1  0
  7 10  2  0
  8 11  1  0
  9 12  2  0
 10 12  1  0
  9 13  1  0
 12 14  1  0
 13 15  2  0
 11 16  1  0
 14 17  2  0
 15 17  1  0
 16 18  1  0
 16 19  1  0
 18 20  2  0
 18 21  1  0
 19 22  2  0
 21 22  1  0
 20 23  1  0
 21 24  2  0
 24 25  1  0
 23 26  2  0
 24 26  1  0
 25 27  1  0
 25 28  1  0
 27 29  1  1
 27 30  1  0
 28 31  1  0
 30 32  1  6
 29 33  1  0
 32 33  1  0
 30 34  1  0
 31 34  1  0
M  END
