mac-x0379-mac-x0344
     RDKit          3D

 22 23  0  0  0  0  0  0  0  0999 V2000
   -5.0260   15.2560    0.3160 C   0  0  0  0  0  0  0  0  0  0  0  0
   -4.1410   15.2410   -0.8730 C   0  0  0  0  0  0  0  0  0  0  0  0
   -4.5690   15.1200   -2.1070 N   0  0  0  0  0  0  0  0  0  0  0  0
   -2.4380   15.3850   -0.6880 S   0  0  0  0  0  0  0  0  0  0  0  0
   -3.4950   15.1370   -2.9710 C   0  0  0  0  0  0  0  0  0  0  0  0
   -2.2490   15.2710   -2.3910 C   0  0  0  0  0  0  0  0  0  0  0  0
   -0.9510   15.3160   -3.0340 C   0  0  0  0  0  0  0  0  0  0  0  0
   -0.7600   15.1140   -4.2290 O   0  0  0  0  0  0  0  0  0  0  0  0
    0.0510   15.6120   -2.1430 O   0  0  0  0  0  0  0  0  0  0  0  0
    1.1470   14.6800   -2.1680 C   0  0  0  0  0  0  0  0  0  0  0  0
    0.6960   13.3170   -2.4300 N   0  0  0  0  0  0  0  0  0  0  0  0
    0.8400   12.8490   -3.6090 C   0  0  0  0  0  0  0  0  0  0  0  0
    1.4450   13.5820   -4.5530 O   0  0  0  0  0  0  0  0  0  0  0  0
    0.3590   11.4860   -4.0890 C   0  0  0  0  0  0  0  0  0  0  0  0
    0.1590   10.6210   -3.2480 O   0  0  0  0  0  0  0  0  0  0  0  0
    0.1850   11.4310   -5.4510 N   0  0  0  0  0  0  0  0  0  0  0  0
   -0.6740   10.5470   -6.1230 C   0  0  0  0  0  0  0  0  0  0  0  0
   -0.3800    9.9700   -7.3550 C   0  0  0  0  0  0  0  0  0  0  0  0
   -1.8880   10.2390   -5.4980 C   0  0  0  0  0  0  0  0  0  0  0  0
   -1.2880    9.0940   -7.9570 C   0  0  0  0  0  0  0  0  0  0  0  0
   -2.7970    9.3640   -6.0960 C   0  0  0  0  0  0  0  0  0  0  0  0
   -2.4960    8.7910   -7.3280 C   0  0  0  0  0  0  0  0  0  0  0  0
  1  2  1  0
  2  3  2  0
  2  4  1  0
  3  5  1  0
  4  6  1  0
  5  6  2  0
  6  7  1  0
  7  8  2  0
  7  9  1  0
  9 10  1  0
 10 11  1  0
 11 12  2  3
 12 13  1  0
 12 14  1  0
 14 15  2  0
 14 16  1  0
 16 17  1  0
 17 18  2  0
 17 19  1  0
 18 20  1  0
 19 21  2  0
 20 22  2  0
 21 22  1  0
M  END
