mac-x0404-diamond-x0685_0_A
     RDKit          3D

 26 28  0  0  0  0  0  0  0  0999 V2000
    1.3650   13.0600   -2.2720 O   0  0  0  0  0  0  0  0  0  0  0  0
    1.2650   12.2640   -3.3530 C   0  0  0  0  0  0  0  0  0  0  0  0
    0.6250   11.2240   -3.2550 O   0  0  0  0  0  0  0  0  0  0  0  0
    1.9930   12.7620   -4.6230 C   0  0  0  0  0  0  0  0  0  0  0  0
    1.5790   13.9800   -5.2230 O   0  0  0  0  0  0  0  0  0  0  0  0
    0.3460   14.4070   -4.8940 C   0  0  0  0  0  0  0  0  0  0  0  0
    0.0290   15.7800   -5.0760 C   0  0  0  0  0  0  0  0  0  0  0  0
   -0.5630   13.5170   -4.3890 C   0  0  0  0  0  0  0  0  0  0  0  0
   -1.2490   16.2500   -4.7070 C   0  0  0  0  0  0  0  0  0  0  0  0
   -1.7760   13.9600   -4.0060 C   0  0  0  0  0  0  0  0  0  0  0  0
    0.9490   16.6990   -5.6030 C   0  0  0  0  0  0  0  0  0  0  0  0
   -2.1160   15.2790   -4.1310 C   0  0  0  0  0  0  0  0  0  0  0  0
   -1.5270   17.6220   -4.9210 C   0  0  0  0  0  0  0  0  0  0  0  0
    0.6560   18.0390   -5.7940 C   0  0  0  0  0  0  0  0  0  0  0  0
   -3.3760   15.4150   -3.5380 C   0  0  0  0  0  0  0  0  0  0  0  0
   -0.5950   18.5010   -5.4560 C   0  0  0  0  0  0  0  0  0  0  0  0
   -4.1120   15.3630   -2.6090 C   0  0  0  0  0  0  0  0  0  0  0  0
   -4.6810   15.2430   -1.3150 C   0  0  0  0  0  0  0  0  0  0  0  0
   -3.8490   15.3180   -0.1920 C   0  0  0  0  0  0  0  0  0  0  0  0
   -6.0220   15.0520   -1.1100 C   0  0  0  0  0  0  0  0  0  0  0  0
   -4.4050   15.2160    1.0780 C   0  0  0  0  0  0  0  0  0  0  0  0
   -6.5810   14.9450    0.1100 N   0  0  0  0  0  0  0  0  0  0  0  0
   -5.7840   15.0370    1.1910 C   0  0  0  0  0  0  0  0  0  0  0  0
   -6.3420   14.9770    2.4700 N   0  0  0  0  0  0  0  0  0  0  0  0
   -7.7450   14.6330    2.6150 C   0  0  0  0  0  0  0  0  0  0  0  0
   -7.8930   13.2110    3.1230 C   0  0  0  0  0  0  0  0  0  0  0  0
  1  2  1  0
  2  3  2  0
  2  4  1  0
  4  5  1  0
  5  6  1  0
  6  7  2  0
  6  8  1  0
  7  9  1  0
  8 10  2  0
  7 11  1  0
  9 12  2  0
 10 12  1  0
  9 13  1  0
 11 14  2  0
 12 15  1  0
 13 16  2  0
 14 16  1  0
 15 17  3  0
 17 18  1  0
 18 19  2  0
 18 20  1  0
 19 21  1  0
 20 22  2  0
 21 23  2  0
 22 23  1  0
 23 24  1  0
 24 25  1  0
 25 26  1  0
M  END
