mac-x0394-diamond-x0722_0_A
     RDKit          3D

 25 26  0  0  0  0  0  0  0  0999 V2000
    0.9780   18.2180   -5.0030 Cl  0  0  0  0  0  0  0  0  0  0  0  0
    0.2400   16.6900   -4.8500 C   0  0  0  0  0  0  0  0  0  0  0  0
   -1.1140   16.6040   -5.1080 C   0  0  0  0  0  0  0  0  0  0  0  0
    0.9860   15.5670   -4.4800 C   0  0  0  0  0  0  0  0  0  0  0  0
    0.3520   14.3110   -4.3640 C   0  0  0  0  0  0  0  0  0  0  0  0
   -1.7420   15.3760   -4.9990 C   0  0  0  0  0  0  0  0  0  0  0  0
   -3.4250   15.2730   -5.3270 Cl  0  0  0  0  0  0  0  0  0  0  0  0
    1.1490   13.0800   -3.9660 C   0  0  0  0  0  0  0  0  0  0  0  0
   -1.0250   14.2350   -4.6320 C   0  0  0  0  0  0  0  0  0  0  0  0
    0.6360   12.2740   -2.7630 C   0  0  0  0  0  0  0  0  0  0  0  0
    0.7260   10.9500   -2.8980 O   0  0  0  0  0  0  0  0  0  0  0  0
    0.1370   12.7540   -1.6760 N   0  0  0  0  0  0  0  0  0  0  0  0
   -0.0410   14.1980   -1.5750 C   0  0  0  0  0  0  0  0  0  0  0  0
   -1.5580   14.4190   -1.6870 C   0  0  0  0  0  0  0  0  0  0  0  0
   -2.2070   14.7170   -0.3730 C   0  0  0  0  0  0  0  0  0  0  0  0
   -3.4870   15.1650   -0.0630 C   0  0  0  0  0  0  0  0  0  0  0  0
   -1.5540   14.5820    0.8330 N   0  0  0  0  0  0  0  0  0  0  0  0
   -0.2140   14.1550    1.1300 C   0  0  0  0  0  0  0  0  0  0  0  0
   -4.6450   15.4840   -0.9610 C   0  0  0  0  0  0  0  0  0  0  0  0
   -2.3020   14.9120    1.8610 N   0  0  0  0  0  0  0  0  0  0  0  0
   -3.4520   15.2730    1.3410 C   0  0  0  0  0  0  0  0  0  0  0  0
   -4.4770   15.7330    2.2550 C   0  0  0  0  0  0  0  0  0  0  0  0
   -5.9050   14.7130   -0.5890 C   0  0  0  0  0  0  0  0  0  0  0  0
   -7.0410   15.1500   -0.7570 O   0  0  0  0  0  0  0  0  0  0  0  0
   -5.7150   13.4770   -0.0460 N   0  0  0  0  0  0  0  0  0  0  0  0
  1  2  1  0
  2  3  2  0
  2  4  1  0
  4  5  2  0
  3  6  1  0
  6  7  1  0
  5  8  1  0
  5  9  1  0
  6  9  2  0
  8 10  1  0
 10 11  1  0
 10 12  2  3
 12 13  1  0
 13 14  1  0
 14 15  1  0
 15 16  2  0
 15 17  1  0
 17 18  1  0
 16 19  1  0
 17 20  1  0
 16 21  1  0
 20 21  2  0
 21 22  1  0
 19 23  1  0
 23 24  2  0
 23 25  1  0
M  END
