mac-x0439-mac-x0226
     RDKit          3D

 26 29  0  0  0  0  0  0  0  0999 V2000
   -3.1370   15.6440   -4.9770 Cl  0  0  0  0  0  0  0  0  0  0  0  0
   -1.6530   16.4730   -5.2250 C   0  0  0  0  0  0  0  0  0  0  0  0
   -0.3820   15.7060   -5.0570 C   0  0  2  0  0  0  0  0  0  0  0  0
   -1.6240   17.7710   -5.5850 C   0  0  0  0  0  0  0  0  0  0  0  0
   -0.0880   14.6420   -4.0580 C   0  0  0  0  0  0  0  0  0  0  0  0
    0.7330   16.6390   -4.6950 C   0  0  0  0  0  0  0  0  0  0  0  0
   -0.3590   18.4520   -5.8060 C   0  0  0  0  0  0  0  0  0  0  0  0
    1.0490   14.9520   -3.4180 C   0  0  0  0  0  0  0  0  0  0  0  0
    1.5420   16.1820   -3.8000 N   0  0  0  0  0  0  0  0  0  0  0  0
    0.8130   17.9470   -5.3890 C   0  0  0  0  0  0  0  0  0  0  0  0
    1.7060   14.0590   -2.3910 C   0  0  0  0  0  0  0  0  0  0  0  0
    2.6790   14.7120   -1.7060 O   0  0  0  0  0  0  0  0  0  0  0  0
    1.4460   12.8120   -2.1390 N   0  0  0  0  0  0  0  0  0  0  0  0
    0.5210   12.0120   -2.7560 C   0  0  0  0  0  0  0  0  0  0  0  0
   -0.3580   11.3730   -2.1800 O   0  0  0  0  0  0  0  0  0  0  0  0
    0.7100   11.9480   -4.1920 C   0  0  0  0  0  0  0  0  0  0  0  0
    1.6040   12.7040   -4.9740 C   0  0  0  0  0  0  0  0  0  0  0  0
    0.0740   11.1360   -5.1090 C   0  0  0  0  0  0  0  0  0  0  0  0
    1.5450   12.3960   -6.2640 N   0  0  0  0  0  0  0  0  0  0  0  0
    0.6000   11.4230   -6.3450 N   0  0  0  0  0  0  0  0  0  0  0  0
    0.2810   10.8410   -7.5930 C   0  0  0  0  0  0  0  0  0  0  0  0
   -0.9590   10.2140   -7.7750 C   0  0  0  0  0  0  0  0  0  0  0  0
    1.1930   10.8800   -8.6520 C   0  0  0  0  0  0  0  0  0  0  0  0
   -1.2790    9.6370   -9.0020 C   0  0  0  0  0  0  0  0  0  0  0  0
    0.8700   10.3050   -9.8780 C   0  0  0  0  0  0  0  0  0  0  0  0
   -0.3660    9.6820  -10.0560 C   0  0  0  0  0  0  0  0  0  0  0  0
  1  2  1  0
  2  3  1  0
  2  4  2  0
  3  5  1  1
  3  6  1  0
  4  7  1  0
  5  8  2  0
  6  9  2  0
  8  9  1  0
  6 10  1  0
  7 10  2  0
  8 11  1  0
 11 12  1  0
 11 13  2  3
 13 14  1  0
 14 15  2  0
 14 16  1  0
 16 17  1  0
 16 18  2  0
 17 19  2  0
 18 20  1  0
 19 20  1  0
 20 21  1  0
 21 22  2  0
 21 23  1  0
 22 24  1  0
 23 25  2  0
 24 26  2  0
 25 26  1  0
M  END
