mac-x0178-diamond-x0591_0_A
     RDKit          3D

 25 26  0  0  0  0  0  0  0  0999 V2000
   -0.6510   17.6470   -6.5420 N   0  0  0  0  0  0  0  0  0  0  0  0
   -1.5540   17.2690   -5.3750 S   0  0  0  0  0  0  0  0  0  0  0  0
   -2.8220   16.5260   -6.1180 N   0  0  0  0  0  0  0  0  0  0  0  0
   -2.5620   17.3490   -4.3010 O   0  0  0  0  0  0  0  0  0  0  0  0
   -0.7090   16.1150   -4.6090 C   0  0  0  0  0  0  0  0  0  0  0  0
   -2.8360   15.1040   -5.4640 S   0  0  2  0  0  0  0  0  0  0  0  0
    0.3700   16.2260   -3.7650 C   0  0  0  0  0  0  0  0  0  0  0  0
   -1.1180   14.8020   -4.7980 C   0  0  0  0  0  0  0  0  0  0  0  0
   -3.4040   14.0850   -6.3960 O   0  0  0  0  0  0  0  0  0  0  0  0
    0.9590   15.1490   -3.1640 C   0  0  0  0  0  0  0  0  0  0  0  0
   -0.5660   13.7180   -4.2280 C   0  0  0  0  0  0  0  0  0  0  0  0
   -3.6890   14.9330   -3.9240 C   0  0  0  0  0  0  0  0  0  0  0  0
    0.4740   13.8740   -3.3960 C   0  0  0  0  0  0  0  0  0  0  0  0
   -3.0930   14.8980   -2.6760 C   0  0  0  0  0  0  0  0  0  0  0  0
   -5.0320   14.8370   -4.0080 C   0  0  0  0  0  0  0  0  0  0  0  0
    1.0680   12.7090   -2.7560 C   0  0  0  0  0  0  0  0  0  0  0  0
   -3.8900   14.7830   -1.5470 C   0  0  0  0  0  0  0  0  0  0  0  0
   -5.8250   14.7280   -2.8740 C   0  0  0  0  0  0  0  0  0  0  0  0
    1.9330   12.8540   -1.8760 O   0  0  0  0  0  0  0  0  0  0  0  0
    0.6830   11.4180   -3.0810 O   0  0  0  0  0  0  0  0  0  0  0  0
   -5.2690   14.7040   -1.6290 C   0  0  0  0  0  0  0  0  0  0  0  0
   -6.1520   14.6010   -0.4560 C   0  0  0  0  0  0  0  0  0  0  0  0
   -5.7040   14.4840    0.8720 N   0  0  0  0  0  0  0  0  0  0  0  0
   -7.4050   14.6300   -0.6270 O   0  0  0  0  0  0  0  0  0  0  0  0
   -6.6600   14.5120    1.9650 C   0  0  0  0  0  0  0  0  0  0  0  0
  1  2  1  0
  2  3  1  0
  2  4  2  0
  2  5  1  0
  3  6  2  0
  5  7  2  0
  5  8  1  0
  6  9  2  0
  7 10  1  0
  8 11  2  0
  6 12  1  1
 10 13  2  0
 11 13  1  0
 12 14  2  0
 12 15  1  0
 13 16  1  0
 14 17  1  0
 15 18  2  0
 16 19  2  0
 16 20  1  0
 17 21  2  0
 18 21  1  0
 21 22  1  0
 22 23  1  0
 22 24  2  0
 23 25  1  0
M  END
