mac-x0357-diamond-x0685_0_A
     RDKit          3D

 23 24  0  0  0  0  0  0  0  0999 V2000
    2.3880   13.1740   -4.7160 C   0  0  0  0  0  0  0  0  0  0  0  0
    1.0690   12.5020   -4.9880 C   0  0  0  0  0  0  0  0  0  0  0  0
    0.8210   11.7650   -6.1450 C   0  0  0  0  0  0  0  0  0  0  0  0
    0.0180   12.5940   -4.0640 C   0  0  0  0  0  0  0  0  0  0  0  0
    1.7450   11.5990   -7.1190 O   0  0  0  0  0  0  0  0  0  0  0  0
    0.1880   13.3660   -2.8320 C   0  0  0  0  0  0  0  0  0  0  0  0
   -1.2260   11.9660   -4.2840 C   0  0  0  0  0  0  0  0  0  0  0  0
   -0.4020   11.1400   -6.3790 C   0  0  0  0  0  0  0  0  0  0  0  0
   -0.4310   14.4710   -2.6660 N   0  0  0  0  0  0  0  0  0  0  0  0
    1.0380   12.8160   -1.9290 O   0  0  0  0  0  0  0  0  0  0  0  0
   -1.4290   11.2360   -5.4490 C   0  0  0  0  0  0  0  0  0  0  0  0
   -1.3350   14.9440   -3.7260 C   0  0  0  0  0  0  0  0  0  0  0  0
   -2.5650   15.0500   -2.9550 C   0  0  0  0  0  0  0  0  0  0  0  0
   -3.4040   15.0760   -2.1200 C   0  0  0  0  0  0  0  0  0  0  0  0
   -4.1580   15.0050   -0.9300 C   0  0  0  0  0  0  0  0  0  0  0  0
   -3.4450   15.0450    0.2510 C   0  0  0  0  0  0  0  0  0  0  0  0
   -5.5380   14.8920   -0.8700 C   0  0  0  0  0  0  0  0  0  0  0  0
   -4.1200   14.9660    1.4490 C   0  0  0  0  0  0  0  0  0  0  0  0
   -6.2220   14.8110    0.3010 N   0  0  0  0  0  0  0  0  0  0  0  0
   -5.5070   14.8470    1.4490 C   0  0  0  0  0  0  0  0  0  0  0  0
   -6.1150   14.7630    2.7030 N   0  0  0  0  0  0  0  0  0  0  0  0
   -7.5710   14.8010    2.8200 C   0  0  0  0  0  0  0  0  0  0  0  0
   -8.1030   13.3990    3.0730 C   0  0  0  0  0  0  0  0  0  0  0  0
  1  2  1  0
  2  3  2  0
  2  4  1  0
  3  5  1  0
  4  6  1  0
  4  7  2  0
  3  8  1  0
  6  9  2  3
  6 10  1  0
  7 11  1  0
  8 11  2  0
  9 12  1  0
 12 13  1  0
 13 14  3  0
 14 15  1  0
 15 16  2  0
 15 17  1  0
 16 18  1  0
 17 19  2  0
 18 20  2  0
 19 20  1  0
 20 21  1  0
 21 22  1  0
 22 23  1  0
M  END
