mac-x0337-mac-x0373
     RDKit          3D

 26 28  0  0  0  0  0  0  0  0999 V2000
   -6.0800    9.8890   -2.5780 C   0  0  0  0  0  0  0  0  0  0  0  0
   -5.3940   10.9020   -1.7150 C   0  0  0  0  0  0  0  0  0  0  0  0
   -6.0430   11.4510   -0.6120 C   0  0  0  0  0  0  0  0  0  0  0  0
   -4.0940   11.3100   -1.9900 C   0  0  0  0  0  0  0  0  0  0  0  0
   -3.4440   12.2450   -1.1660 C   0  0  0  0  0  0  0  0  0  0  0  0
   -5.3930   12.3750    0.2120 C   0  0  0  0  0  0  0  0  0  0  0  0
   -4.0820   12.7840   -0.0360 C   0  0  0  0  0  0  0  0  0  0  0  0
   -3.3880   13.9620    1.2120 S   0  0  0  0  0  0  0  0  0  0  0  0
   -2.1490   14.7630    0.3780 N   0  0  0  0  0  0  0  0  0  0  0  0
   -4.6400   15.0520    0.9680 N   0  0  0  0  0  0  0  0  0  0  0  0
   -2.9150   14.9720   -0.6100 C   0  0  0  0  0  0  0  0  0  0  0  0
   -4.0840   15.6310   -0.2640 C   0  0  0  0  0  0  0  0  0  0  0  0
   -2.6680   14.5640   -1.9090 C   0  0  0  0  0  0  0  0  0  0  0  0
   -1.4010   13.8140   -2.3420 C   0  0  2  0  0  0  0  0  0  0  0  0
   -3.6690   14.8300   -2.8500 C   0  0  0  0  0  0  0  0  0  0  0  0
   -5.0520   15.8790   -1.1810 C   0  0  0  0  0  0  0  0  0  0  0  0
    0.0060   14.3590   -2.1500 C   0  0  0  0  0  0  0  0  0  0  0  0
   -1.6250   12.9060   -3.5430 C   0  0  0  0  0  0  0  0  0  0  0  0
   -4.8460   15.4690   -2.4710 C   0  0  0  0  0  0  0  0  0  0  0  0
    0.8020   13.4190   -1.5770 O   0  0  0  0  0  0  0  0  0  0  0  0
    0.4840   15.4490   -2.4230 O   0  0  0  0  0  0  0  0  0  0  0  0
   -0.7290   12.7780   -4.6100 C   0  0  0  0  0  0  0  0  0  0  0  0
   -2.7990   12.1560   -3.5580 C   0  0  0  0  0  0  0  0  0  0  0  0
   -1.0200   11.9030   -5.6630 C   0  0  0  0  0  0  0  0  0  0  0  0
   -3.0910   11.2850   -4.5990 C   0  0  0  0  0  0  0  0  0  0  0  0
   -2.1970   11.1590   -5.6520 C   0  0  0  0  0  0  0  0  0  0  0  0
  1  2  1  0
  2  3  2  0
  2  4  1  0
  4  5  2  0
  3  6  1  0
  5  7  1  0
  6  7  2  0
  7  8  1  0
  8  9  2  3
  8 10  1  0
  9 11  1  0
 11 12  2  0
 11 13  1  0
 13 14  1  0
 13 15  2  0
 12 16  1  0
 14 17  1  6
 14 18  1  0
 15 19  1  0
 16 19  2  0
 17 20  1  0
 17 21  2  0
 18 22  2  0
 18 23  1  0
 22 24  1  0
 23 25  2  0
 24 26  2  0
 25 26  1  0
M  END
