mac-x0277-mac-x0437
     RDKit          3D

 22 24  0  0  0  0  0  0  0  0999 V2000
   -1.3910   18.6110   -5.2210 Cl  0  0  0  0  0  0  0  0  0  0  0  0
   -0.6610   17.0880   -4.9060 C   0  0  0  0  0  0  0  0  0  0  0  0
   -1.3800   15.9000   -5.0120 C   0  0  0  0  0  0  0  0  0  0  0  0
    0.6880   17.0560   -4.5380 C   0  0  0  0  0  0  0  0  0  0  0  0
   -3.0450   15.8460   -5.4520 Cl  0  0  0  0  0  0  0  0  0  0  0  0
   -0.7490   14.6920   -4.7620 C   0  0  0  0  0  0  0  0  0  0  0  0
    1.3100   15.8360   -4.2870 C   0  0  0  0  0  0  0  0  0  0  0  0
    0.5980   14.6500   -4.4020 C   0  0  0  0  0  0  0  0  0  0  0  0
    1.2100   13.3050   -4.1780 C   0  0  1  0  0  0  0  0  0  0  0  0
    0.8760   12.5430   -2.8980 C   0  0  0  0  0  0  0  0  0  0  0  0
    0.9980   12.5650   -5.4970 C   0  0  0  0  0  0  0  0  0  0  0  0
    0.3540   11.3130   -3.0240 O   0  0  0  0  0  0  0  0  0  0  0  0
    1.0510   12.9830   -1.7730 O   0  0  0  0  0  0  0  0  0  0  0  0
   -0.1120   11.6590   -5.6490 N   0  0  0  0  0  0  0  0  0  0  0  0
   -1.2660   11.5590   -4.9110 C   0  0  0  0  0  0  0  0  0  0  0  0
   -0.1500   10.7210   -6.6190 C   0  0  0  0  0  0  0  0  0  0  0  0
   -2.0400   10.5890   -5.3620 N   0  0  0  0  0  0  0  0  0  0  0  0
   -1.3510   10.0580   -6.4240 C   0  0  0  0  0  0  0  0  0  0  0  0
    0.7520   10.4060   -7.6250 C   0  0  0  0  0  0  0  0  0  0  0  0
   -1.6760    8.9990   -7.2840 C   0  0  0  0  0  0  0  0  0  0  0  0
    0.4170    9.3550   -8.4720 C   0  0  0  0  0  0  0  0  0  0  0  0
   -0.7780    8.6590   -8.3050 C   0  0  0  0  0  0  0  0  0  0  0  0
  1  2  1  0
  2  3  2  0
  2  4  1  0
  3  5  1  0
  3  6  1  0
  4  7  2  0
  6  8  2  0
  7  8  1  0
  8  9  1  0
  9 10  1  0
  9 11  1  6
 10 12  1  0
 10 13  2  0
 11 14  1  0
 14 15  1  0
 14 16  1  0
 15 17  2  0
 16 18  2  0
 17 18  1  0
 16 19  1  0
 18 20  1  0
 19 21  2  0
 20 22  2  0
 21 22  1  0
M  END
