mac-x0453-mac-x0284
     RDKit          3D

 12 12  0  0  0  0  0  0  0  0999 V2000
   -6.7250   13.8900    2.1080 N   0  0  0  0  0  0  0  0  0  0  0  0
   -5.7870   13.7150    0.9930 C   0  0  0  0  0  0  0  0  0  0  0  0
   -4.8800   14.9400    0.8000 C   0  0  0  0  0  0  0  0  0  0  0  0
   -3.8620   14.8350   -0.2920 C   0  0  0  0  0  0  0  0  0  0  0  0
   -2.5010   14.6130   -0.1930 C   0  0  0  0  0  0  0  0  0  0  0  0
   -4.2160   14.9690   -1.6230 N   0  0  0  0  0  0  0  0  0  0  0  0
   -1.9880   14.6140   -1.4940 N   0  0  0  0  0  0  0  0  0  0  0  0
   -3.0870   14.8330   -2.2980 C   0  0  0  0  0  0  0  0  0  0  0  0
   -3.0480   14.9110   -3.6260 O   0  0  0  0  0  0  0  0  0  0  0  0
   -0.6230   14.4300   -1.8530 C   0  0  0  0  0  0  0  0  0  0  0  0
    0.2630   14.2600   -1.0380 O   0  0  0  0  0  0  0  0  0  0  0  0
   -0.3800   14.4690   -3.1810 O   0  0  0  0  0  0  0  0  0  0  0  0
  1  2  1  0
  2  3  1  0
  3  4  1  0
  4  5  2  0
  4  6  1  0
  5  7  1  0
  6  8  2  0
  7  8  1  0
  8  9  1  0
  7 10  1  0
 10 11  2  0
 10 12  1  0
M  END
