mac-x0159-mac-x0301
     RDKit          3D

 19 21  0  0  0  0  0  0  0  0999 V2000
   -4.3180   14.9260    0.9020 N   0  0  0  0  0  0  0  0  0  0  0  0
   -3.4550   15.4520   -0.1310 C   0  0  1  0  0  0  0  0  0  0  0  0
   -1.9590   15.4770    0.2390 C   0  0  2  0  0  0  0  0  0  0  0  0
   -3.7320   14.6000   -1.2660 N   0  0  0  0  0  0  0  0  0  0  0  0
   -2.9670   15.0790   -2.4120 C   0  0  0  0  0  0  0  0  0  0  0  0
   -1.0210   15.3280   -0.9800 C   0  0  2  0  0  0  0  0  0  0  0  0
   -1.5260   14.4560    1.2120 N   0  0  0  0  0  0  0  0  0  0  0  0
   -1.5770   14.7450   -2.1850 N   0  0  0  0  0  0  0  0  0  0  0  0
   -0.0440   14.3190   -0.5240 N   0  0  0  0  0  0  0  0  0  0  0  0
   -0.1180   14.3660    0.9260 C   0  0  0  0  0  0  0  0  0  0  0  0
   -0.7310   14.7020   -3.3920 C   0  0  0  0  0  0  0  0  0  0  0  0
    0.4940   14.0590   -3.1140 O   0  0  0  0  0  0  0  0  0  0  0  0
   -1.3620   13.8300   -4.3090 O   0  0  0  0  0  0  0  0  0  0  0  0
   -0.4030   16.0020   -4.1280 C   0  0  0  0  0  0  0  0  0  0  0  0
    0.8730   16.5410   -4.2020 C   0  0  0  0  0  0  0  0  0  0  0  0
   -1.3720   16.7590   -4.8110 N   0  0  0  0  0  0  0  0  0  0  0  0
   -0.8110   17.8120   -5.3640 C   0  0  0  0  0  0  0  0  0  0  0  0
    0.8730   17.9810   -5.1160 S   0  0  0  0  0  0  0  0  0  0  0  0
   -1.5400   18.8260   -6.1700 C   0  0  0  0  0  0  0  0  0  0  0  0
  2  1  1  1
  2  3  1  0
  2  4  1  0
  4  5  1  0
  3  6  1  0
  3  7  1  1
  5  8  1  0
  6  8  1  0
  6  9  1  1
  7 10  1  0
  9 10  1  0
  8 11  1  0
 11 12  1  0
 11 13  1  0
 11 14  1  0
 14 15  2  0
 14 16  1  0
 16 17  2  0
 15 18  1  0
 17 18  1  0
 17 19  1  0
M  END
