mac-x0404-mac-x0161
     RDKit          3D

 33 37  0  0  0  0  0  0  0  0999 V2000
    1.7800   12.7820   -2.4420 O   0  0  0  0  0  0  0  0  0  0  0  0
    1.3350   12.0800   -3.5810 C   0  0  0  0  0  0  0  0  0  0  0  0
    2.1650   10.9750   -3.6600 O   0  0  0  0  0  0  0  0  0  0  0  0
    1.5010   12.8500   -4.9170 C   0  0  0  0  0  0  0  0  0  0  0  0
    0.0670   11.4970   -3.2820 N   0  0  0  0  0  0  0  0  0  0  0  0
    1.2930   14.2590   -4.7230 O   0  0  0  0  0  0  0  0  0  0  0  0
   -0.4340   12.2400   -2.1440 O   0  0  0  0  0  0  0  0  0  0  0  0
   -0.8990   11.5250   -4.3660 C   0  0  1  0  0  0  0  0  0  0  0  0
   -1.3810   10.2530   -4.7740 O   0  0  0  0  0  0  0  0  0  0  0  0
    0.0120   14.6860   -5.0150 C   0  0  0  0  0  0  0  0  0  0  0  0
   -2.0890   12.2720   -3.7840 C   0  0  0  0  0  0  0  0  0  0  0  0
   -1.5310   13.0350   -2.5920 C   0  0  2  0  0  0  0  0  0  0  0  0
   -1.1370   14.5010   -2.8500 C   0  0  0  0  0  0  0  0  0  0  0  0
   -1.9080   10.2900   -6.0930 C   0  0  0  0  0  0  0  0  0  0  0  0
   -0.2090   16.0440   -5.1830 C   0  0  0  0  0  0  0  0  0  0  0  0
   -1.0380   13.7820   -5.1400 C   0  0  0  0  0  0  0  0  0  0  0  0
   -1.5030   16.5210   -5.4730 C   0  0  0  0  0  0  0  0  0  0  0  0
   -2.3320   14.2440   -5.4230 C   0  0  0  0  0  0  0  0  0  0  0  0
    0.8410   16.9330   -5.0740 C   0  0  0  0  0  0  0  0  0  0  0  0
   -1.8260   15.4110   -1.9260 N   0  0  0  0  0  0  0  0  0  0  0  0
   -2.5650   15.6080   -5.5840 C   0  0  0  0  0  0  0  0  0  0  0  0
   -1.6900   17.8860   -5.6510 C   0  0  0  0  0  0  0  0  0  0  0  0
    0.6550   18.2870   -5.2550 C   0  0  0  0  0  0  0  0  0  0  0  0
   -3.2840   15.2620   -2.0660 C   0  0  0  0  0  0  0  0  0  0  0  0
   -1.2910   15.4630   -0.5700 C   0  0  1  0  0  0  0  0  0  0  0  0
   -0.6210   18.7640   -5.5490 C   0  0  0  0  0  0  0  0  0  0  0  0
   -4.0920   15.5720   -0.9040 N   0  0  0  0  0  0  0  0  0  0  0  0
   -2.2090   15.3670    0.6620 C   0  0  1  0  0  0  0  0  0  0  0  0
   -0.2840   14.4450   -0.3200 N   0  0  0  0  0  0  0  0  0  0  0  0
   -3.6270   14.9520    0.2880 C   0  0  1  0  0  0  0  0  0  0  0  0
   -1.5400   14.4490    1.6010 N   0  0  0  0  0  0  0  0  0  0  0  0
   -0.1780   14.3680    1.1140 C   0  0  0  0  0  0  0  0  0  0  0  0
   -4.5970   15.3690    1.2860 N   0  0  0  0  0  0  0  0  0  0  0  0
  2  1  1  0
  2  3  1  0
  2  4  1  0
  2  5  1  0
  4  6  1  0
  5  7  1  0
  5  8  1  0
  8  9  1  1
  6 10  1  0
  8 11  1  0
  7 12  1  0
 11 12  1  0
 12 13  1  6
  9 14  1  0
 10 15  1  0
 10 16  2  0
 15 17  2  0
 16 18  1  0
 15 19  1  0
 13 20  1  0
 17 21  1  0
 18 21  2  0
 17 22  1  0
 19 23  2  0
 20 24  1  0
 20 25  1  0
 22 26  2  0
 23 26  1  0
 24 27  1  0
 25 28  1  0
 25 29  1  6
 27 30  1  0
 28 30  1  0
 28 31  1  1
 29 32  1  0
 31 32  1  0
 30 33  1  1
M  END
