mac-x0188-mac-x0138
     RDKit          3D

 22 24  0  0  0  0  0  0  0  0999 V2000
    1.5560   13.0990   -5.0630 C   0  0  0  0  0  0  0  0  0  0  0  0
    0.2780   13.4910   -4.4440 C   0  0  0  0  0  0  0  0  0  0  0  0
   -0.8100   13.4110   -5.2420 O   0  0  0  0  0  0  0  0  0  0  0  0
   -0.0880   13.9420   -3.1880 C   0  0  0  0  0  0  0  0  0  0  0  0
    0.7790   14.1600   -2.0680 C   0  0  0  0  0  0  0  0  0  0  0  0
   -1.9120   13.8060   -4.5300 N   0  0  0  0  0  0  0  0  0  0  0  0
   -1.4980   14.1360   -3.2890 C   0  0  0  0  0  0  0  0  0  0  0  0
    1.3680   15.1910   -1.8410 O   0  0  0  0  0  0  0  0  0  0  0  0
    0.9480   13.1090   -1.2310 O   0  0  0  0  0  0  0  0  0  0  0  0
   -2.4960   14.6100   -2.3150 C   0  0  0  0  0  0  0  0  0  0  0  0
   -3.6800   15.0660   -2.8960 C   0  0  0  0  0  0  0  0  0  0  0  0
   -2.3140   14.6220   -0.9070 C   0  0  0  0  0  0  0  0  0  0  0  0
   -3.7850   15.0370   -4.3840 C   0  0  0  0  0  0  0  0  0  0  0  0
   -4.7240   15.5350   -2.1060 C   0  0  0  0  0  0  0  0  0  0  0  0
   -3.3840   15.1100   -0.1390 C   0  0  0  0  0  0  0  0  0  0  0  0
   -1.1820   14.1990   -0.2910 N   0  0  0  0  0  0  0  0  0  0  0  0
   -4.5760   15.5600   -0.7380 C   0  0  0  0  0  0  0  0  0  0  0  0
   -3.2000   15.1240    1.2310 C   0  0  0  0  0  0  0  0  0  0  0  0
   -1.1230   14.2570    1.0490 C   0  0  0  0  0  0  0  0  0  0  0  0
   -4.2170   15.6070    2.0570 N   0  0  0  0  0  0  0  0  0  0  0  0
    0.0270   13.8240    1.6680 N   0  0  0  0  0  0  0  0  0  0  0  0
   -2.0890   14.6980    1.8300 N   0  0  0  0  0  0  0  0  0  0  0  0
  1  2  1  0
  2  3  1  0
  2  4  2  0
  4  5  1  0
  3  6  1  0
  4  7  1  0
  6  7  2  0
  5  8  2  0
  5  9  1  0
  7 10  1  0
 10 11  2  0
 10 12  1  0
 11 13  1  0
 11 14  1  0
 12 15  2  0
 12 16  1  0
 14 17  2  0
 15 17  1  0
 15 18  1  0
 16 19  2  0
 18 20  1  0
 19 21  1  0
 18 22  2  0
 19 22  1  0
M  END
