mac-x0188-diamond-x0685_0_A
     RDKit          3D

 25 27  0  0  0  0  0  0  0  0999 V2000
    1.3230   13.9080   -5.1970 C   0  0  0  0  0  0  0  0  0  0  0  0
    0.0240   13.7420   -4.5310 C   0  0  0  0  0  0  0  0  0  0  0  0
   -1.0640   13.6490   -5.3360 O   0  0  0  0  0  0  0  0  0  0  0  0
   -0.3520   13.6520   -3.2210 C   0  0  0  0  0  0  0  0  0  0  0  0
    0.5400   13.7180   -2.0970 C   0  0  0  0  0  0  0  0  0  0  0  0
   -2.1860   13.4810   -4.5550 N   0  0  0  0  0  0  0  0  0  0  0  0
   -1.7560   13.4740   -3.2780 C   0  0  0  0  0  0  0  0  0  0  0  0
    1.1770   14.7270   -1.8240 O   0  0  0  0  0  0  0  0  0  0  0  0
    0.6360   12.5640   -1.3900 O   0  0  0  0  0  0  0  0  0  0  0  0
   -2.7120   13.2730   -2.1270 C   0  0  2  0  0  0  0  0  0  0  0  0
   -4.2100   13.7230   -2.3250 C   0  0  2  0  0  0  0  0  0  0  0  0
   -2.3150   13.8590   -0.7970 C   0  0  0  0  0  0  0  0  0  0  0  0
   -4.2760   15.1430   -2.4460 C   0  0  0  0  0  0  0  0  0  0  0  0
   -2.8050   15.0600   -0.5060 C   0  0  0  0  0  0  0  0  0  0  0  0
   -4.7740   14.0110   -0.9410 C   0  0  0  0  0  0  0  0  0  0  0  0
   -5.0230   13.2910   -3.4580 N   0  0  0  0  0  0  0  0  0  0  0  0
   -3.6110   15.7320   -1.5070 C   0  0  0  0  0  0  0  0  0  0  0  0
   -3.9560   13.9810    0.1990 C   0  0  0  0  0  0  0  0  0  0  0  0
   -6.0930   14.3610   -0.7440 C   0  0  0  0  0  0  0  0  0  0  0  0
   -4.4680   14.3050    1.4380 C   0  0  0  0  0  0  0  0  0  0  0  0
   -6.6110   14.6720    0.4570 N   0  0  0  0  0  0  0  0  0  0  0  0
   -5.8020   14.6500    1.5270 C   0  0  0  0  0  0  0  0  0  0  0  0
   -6.4120   15.0060    2.7080 N   0  0  0  0  0  0  0  0  0  0  0  0
   -7.8480   14.8520    2.7910 C   0  0  0  0  0  0  0  0  0  0  0  0
   -8.2030   13.3970    3.0330 C   0  0  0  0  0  0  0  0  0  0  0  0
  1  2  1  0
  2  3  1  0
  2  4  2  0
  4  5  1  0
  3  6  1  0
  4  7  1  0
  6  7  2  0
  5  8  2  0
  5  9  1  0
 10  7  1  6
 10 11  1  0
 10 12  1  0
 11 13  1  0
 12 14  2  0
 11 15  1  0
 11 16  1  6
 13 17  2  0
 14 17  1  0
 15 18  2  0
 15 19  1  0
 18 20  1  0
 19 21  2  0
 20 22  2  0
 21 22  1  0
 22 23  1  0
 23 24  1  0
 24 25  1  0
M  END
