mac-x0365-mac-x0412
     RDKit          3D

 14 15  0  0  0  0  0  0  0  0999 V2000
   -0.7210   14.8370   -1.3990 O   0  0  0  0  0  0  0  0  0  0  0  0
   -1.7130   14.8250   -2.3050 C   0  0  0  0  0  0  0  0  0  0  0  0
   -1.4800   14.7990   -3.4980 O   0  0  0  0  0  0  0  0  0  0  0  0
   -3.0680   14.8510   -1.7050 C   0  0  0  0  0  0  0  0  0  0  0  0
   -4.1970   14.8730   -2.5170 C   0  0  0  0  0  0  0  0  0  0  0  0
   -3.2110   14.8500   -0.3080 C   0  0  0  0  0  0  0  0  0  0  0  0
   -5.4570   14.8780   -1.9380 C   0  0  0  0  0  0  0  0  0  0  0  0
   -4.4910   14.8560    0.2740 C   0  0  0  0  0  0  0  0  0  0  0  0
   -6.5290   14.8940   -2.7360 F   0  0  0  0  0  0  0  0  0  0  0  0
   -5.6260   14.8610   -0.5590 C   0  0  0  0  0  0  0  0  0  0  0  0
   -4.6790   14.8530    1.6520 C   0  0  0  0  0  0  0  0  0  0  0  0
   -6.8840   14.8460    0.0380 C   0  0  0  0  0  0  0  0  0  0  0  0
   -5.9790   14.8440    2.1410 C   0  0  0  0  0  0  0  0  0  0  0  0
   -7.0880   14.8310    1.3740 N   0  0  0  0  0  0  0  0  0  0  0  0
  1  2  1  0
  2  3  2  0
  2  4  1  0
  4  5  2  0
  4  6  1  0
  5  7  1  0
  6  8  2  0
  7  9  1  0
  7 10  2  0
  8 10  1  0
  8 11  1  0
 10 12  1  0
 11 13  2  0
 12 14  2  0
 13 14  1  0
M  END
