mac-x0305-mac-x0328
     RDKit          3D

 13 13  0  0  0  0  0  0  0  0999 V2000
    0.2490   13.1910   -0.2680 O   0  0  0  0  0  0  0  0  0  0  0  0
   -0.3570   13.9580   -1.2220 C   0  0  0  0  0  0  0  0  0  0  0  0
    0.2030   14.2250   -2.3680 N   0  0  0  0  0  0  0  0  0  0  0  0
   -1.7250   14.4340   -0.8230 C   0  0  0  0  0  0  0  0  0  0  0  0
   -2.0890   14.7480    0.5080 C   0  0  0  0  0  0  0  0  0  0  0  0
   -2.5910   14.5360   -1.8800 N   0  0  0  0  0  0  0  0  0  0  0  0
   -0.5920   15.0430   -3.2750 C   0  0  0  0  0  0  0  0  0  0  0  0
   -1.2410   14.6630    1.5960 O   0  0  0  0  0  0  0  0  0  0  0  0
   -3.4080   15.1720    0.7390 C   0  0  0  0  0  0  0  0  0  0  0  0
   -3.8490   14.9490   -1.6090 C   0  0  0  0  0  0  0  0  0  0  0  0
   -1.1770   14.3020   -4.3270 O   0  0  0  0  0  0  0  0  0  0  0  0
   -4.3030   15.2690   -0.3400 C   0  0  0  0  0  0  0  0  0  0  0  0
   -5.6130   15.6610   -0.2090 O   0  0  0  0  0  0  0  0  0  0  0  0
  1  2  1  0
  2  3  2  3
  2  4  1  0
  4  5  2  0
  4  6  1  0
  3  7  1  0
  5  8  1  0
  5  9  1  0
  6 10  2  0
  7 11  1  0
  9 12  2  0
 10 12  1  0
 12 13  1  0
M  END
