mac-x0441-mac-x0116
     RDKit          3D

 34 38  0  0  0  0  0  0  0  0999 V2000
    0.7130   11.3680   -3.0790 O   0  0  0  0  0  0  0  0  0  0  0  0
    0.5880   12.6560   -3.4810 C   0  0  0  0  0  0  0  0  0  0  0  0
    0.5210   13.6910   -2.6720 N   0  0  0  0  0  0  0  0  0  0  0  0
    0.5390   12.9450   -4.9690 C   0  0  0  0  0  0  0  0  0  0  0  0
    0.5920   13.5940   -1.2030 C   0  0  0  0  0  0  0  0  0  0  0  0
    0.2270   11.8790   -5.9210 N   0  0  0  0  0  0  0  0  0  0  0  0
    0.9670   11.8560   -7.0620 N   0  0  0  0  0  0  0  0  0  0  0  0
   -0.7070   10.8750   -5.8980 C   0  0  0  0  0  0  0  0  0  0  0  0
   -0.5510   13.9970   -0.3640 N   0  0  0  0  0  0  0  0  0  0  0  0
    0.4830   10.8190   -7.7860 C   0  0  0  0  0  0  0  0  0  0  0  0
   -0.5610   10.1800   -7.0850 C   0  0  0  0  0  0  0  0  0  0  0  0
   -1.7150   10.5420   -4.8570 C   0  0  0  0  0  0  0  0  0  0  0  0
   -1.8180   14.4020   -0.7210 C   0  0  0  0  0  0  0  0  0  0  0  0
   -0.5070   14.0110    1.0190 C   0  0  0  0  0  0  0  0  0  0  0  0
    0.9530   10.3810   -9.1580 C   0  0  0  0  0  0  0  0  0  0  0  0
   -1.3870    9.0060   -7.4830 C   0  0  0  0  0  0  0  0  0  0  0  0
   -2.8730    9.7810   -5.5390 C   0  0  0  0  0  0  0  0  0  0  0  0
   -2.3330   14.5600   -1.9530 N   0  0  0  0  0  0  0  0  0  0  0  0
   -2.4840   14.6100    0.4950 C   0  0  0  0  0  0  0  0  0  0  0  0
   -1.6470   14.3710    1.5700 N   0  0  0  0  0  0  0  0  0  0  0  0
    1.6370    9.2050   -9.1120 F   0  0  0  0  0  0  0  0  0  0  0  0
   -0.0980   10.1440   -9.9810 F   0  0  0  0  0  0  0  0  0  0  0  0
    1.6900   11.2630   -9.8630 F   0  0  0  0  0  0  0  0  0  0  0  0
   -2.3690    8.5830   -6.3690 C   0  0  0  0  0  0  0  0  0  0  0  0
   -3.6230   14.9550   -1.8930 C   0  0  0  0  0  0  0  0  0  0  0  0
   -3.8420   15.0020    0.4290 C   0  0  0  0  0  0  0  0  0  0  0  0
   -4.6340   15.2050    1.5720 N   0  0  0  0  0  0  0  0  0  0  0  0
   -4.3880   15.1750   -0.8060 N   0  0  0  0  0  0  0  0  0  0  0  0
   -6.0340   14.7880    1.4070 C   0  0  0  0  0  0  0  0  0  0  0  0
   -6.3970   13.3320    1.5060 C   0  0  0  0  0  0  0  0  0  0  0  0
   -6.2840   12.5820    0.3680 O   0  0  0  0  0  0  0  0  0  0  0  0
   -6.8560   12.5410    2.5470 C   0  0  0  0  0  0  0  0  0  0  0  0
   -7.0340   11.2460    2.0200 C   0  0  0  0  0  0  0  0  0  0  0  0
   -6.6720   11.3210    0.6950 C   0  0  0  0  0  0  0  0  0  0  0  0
  1  2  1  0
  2  3  2  3
  2  4  1  0
  3  5  1  0
  4  6  1  0
  6  7  1  0
  6  8  1  0
  5  9  1  0
  7 10  2  0
  8 11  2  0
 10 11  1  0
  8 12  1  0
  9 13  1  0
  9 14  1  0
 10 15  1  0
 11 16  1  0
 12 17  1  0
 13 18  2  0
 13 19  1  0
 14 20  2  0
 19 20  1  0
 15 21  1  0
 15 22  1  0
 15 23  1  0
 16 24  1  0
 17 24  1  0
 18 25  1  0
 19 26  2  0
 26 27  1  0
 25 28  2  0
 26 28  1  0
 27 29  1  0
 29 30  1  0
 30 31  1  0
 30 32  2  0
 32 33  1  0
 31 34  1  0
 33 34  2  0
M  END
