mac-x0228-mac-x0354
     RDKit          3D

 29 32  0  0  0  0  0  0  0  0999 V2000
   -1.0360   15.1950   -1.6680 O   0  0  0  0  0  0  0  0  0  0  0  0
   -1.9190   14.2510   -2.2270 C   0  0  0  0  0  0  0  0  0  0  0  0
   -1.7340   14.2840   -3.6420 O   0  0  0  0  0  0  0  0  0  0  0  0
   -1.3960   12.9230   -1.6450 C   0  0  0  0  0  0  0  0  0  0  0  0
   -3.3750   14.5710   -1.8570 C   0  0  0  0  0  0  0  0  0  0  0  0
    0.1320   12.8330   -1.5480 C   0  0  0  0  0  0  0  0  0  0  0  0
   -3.7660   14.3820   -0.5170 C   0  0  0  0  0  0  0  0  0  0  0  0
   -4.3590   15.0270   -2.7750 C   0  0  0  0  0  0  0  0  0  0  0  0
    0.5860   12.9680   -2.8860 N   0  0  0  0  0  0  0  0  0  0  0  0
   -5.0650   14.6280   -0.1390 C   0  0  0  0  0  0  0  0  0  0  0  0
   -5.6820   15.2720   -2.3620 C   0  0  0  0  0  0  0  0  0  0  0  0
    0.5330   11.9170   -3.5830 C   0  0  0  0  0  0  0  0  0  0  0  0
   -6.0050   15.0650   -1.0470 C   0  0  0  0  0  0  0  0  0  0  0  0
   -5.6990   14.4900    1.1840 C   0  0  0  0  0  0  0  0  0  0  0  0
    0.1170   10.7430   -3.0340 O   0  0  0  0  0  0  0  0  0  0  0  0
   -7.2480   15.2500   -0.5000 O   0  0  0  0  0  0  0  0  0  0  0  0
   -7.1610   14.5170    0.7460 C   0  0  0  0  0  0  0  0  0  0  0  0
    0.8710   11.8830   -4.9460 C   0  0  0  0  0  0  0  0  0  0  0  0
    1.8910   12.6120   -5.5420 C   0  0  0  0  0  0  0  0  0  0  0  0
    0.2830   11.1450   -5.9610 C   0  0  0  0  0  0  0  0  0  0  0  0
    0.9780   11.4750   -7.0720 N   0  0  0  0  0  0  0  0  0  0  0  0
    1.9510   12.3580   -6.8240 N   0  0  0  0  0  0  0  0  0  0  0  0
   -0.8110   10.1980   -5.9740 C   0  0  0  0  0  0  0  0  0  0  0  0
    0.7470   10.9650   -8.4080 C   0  0  0  0  0  0  0  0  0  0  0  0
   -0.6170    8.9320   -6.5390 C   0  0  0  0  0  0  0  0  0  0  0  0
   -2.0480   10.5320   -5.4330 C   0  0  0  0  0  0  0  0  0  0  0  0
   -1.6560    8.0070   -6.5600 C   0  0  0  0  0  0  0  0  0  0  0  0
   -3.0900    9.6050   -5.4560 C   0  0  0  0  0  0  0  0  0  0  0  0
   -2.8920    8.3450   -6.0180 C   0  0  0  0  0  0  0  0  0  0  0  0
  2  1  1  0
  2  3  1  0
  2  4  1  0
  2  5  1  0
  4  6  1  0
  5  7  2  0
  5  8  1  0
  6  9  1  0
  7 10  1  0
  8 11  2  0
  9 12  2  3
 10 13  2  0
 11 13  1  0
 10 14  1  0
 12 15  1  0
 13 16  1  0
 14 17  1  0
 16 17  1  0
 12 18  1  0
 18 19  1  0
 18 20  2  0
 20 21  1  0
 19 22  2  0
 21 22  1  0
 20 23  1  0
 21 24  1  0
 23 25  2  0
 23 26  1  0
 25 27  1  0
 26 28  2  0
 27 29  2  0
 28 29  1  0
M  END
