mac-x0341-mac-x0373
     RDKit          3D

 22 24  0  0  0  0  0  0  0  0999 V2000
   -7.0920   14.8800    2.4040 N   0  0  0  0  0  0  0  0  0  0  0  0
   -6.2340   14.8170    1.3570 C   0  0  0  0  0  0  0  0  0  0  0  0
   -4.9830   15.0110    1.5840 N   0  0  0  0  0  0  0  0  0  0  0  0
   -6.7080   14.5410    0.1030 N   0  0  0  0  0  0  0  0  0  0  0  0
   -5.9580   14.8530   -1.0160 C   0  0  0  0  0  0  0  0  0  0  0  0
   -4.1050   14.8240    0.5350 C   0  0  0  0  0  0  0  0  0  0  0  0
   -6.4430   15.1990   -2.0860 O   0  0  0  0  0  0  0  0  0  0  0  0
   -4.5090   14.7140   -0.7890 C   0  0  0  0  0  0  0  0  0  0  0  0
   -2.7720   14.7110    0.8680 C   0  0  0  0  0  0  0  0  0  0  0  0
   -1.8380   14.4510   -0.1070 C   0  0  0  0  0  0  0  0  0  0  0  0
   -3.5760   14.4560   -1.8070 C   0  0  0  0  0  0  0  0  0  0  0  0
   -2.2190   14.3020   -1.4370 C   0  0  0  0  0  0  0  0  0  0  0  0
   -1.1310   13.9280   -2.4120 C   0  0  2  0  0  0  0  0  0  0  0  0
    0.2260   14.5800   -2.3400 C   0  0  0  0  0  0  0  0  0  0  0  0
   -1.5290   13.0140   -3.5510 C   0  0  0  0  0  0  0  0  0  0  0  0
    1.1430   13.7740   -1.7700 O   0  0  0  0  0  0  0  0  0  0  0  0
    0.5510   15.6840   -2.7140 O   0  0  0  0  0  0  0  0  0  0  0  0
   -0.9520   12.9980   -4.8300 C   0  0  0  0  0  0  0  0  0  0  0  0
   -2.5590   12.1030   -3.2600 C   0  0  0  0  0  0  0  0  0  0  0  0
   -1.4020   12.0810   -5.7830 C   0  0  0  0  0  0  0  0  0  0  0  0
   -3.0060   11.1940   -4.2080 C   0  0  0  0  0  0  0  0  0  0  0  0
   -2.4260   11.1820   -5.4720 C   0  0  0  0  0  0  0  0  0  0  0  0
  1  2  1  0
  2  3  2  0
  2  4  1  0
  4  5  1  0
  3  6  1  0
  5  7  2  0
  5  8  1  0
  6  8  2  0
  6  9  1  0
  9 10  2  0
  8 11  1  0
 10 12  1  0
 11 12  2  0
 12 13  1  0
 13 14  1  6
 13 15  1  0
 14 16  1  0
 14 17  2  0
 15 18  2  0
 15 19  1  0
 18 20  1  0
 19 21  2  0
 20 22  2  0
 21 22  1  0
M  END
