mac-x0124-mac-x0263
     RDKit          3D

 25 28  0  0  0  0  0  0  0  0999 V2000
    0.3990   15.2870   -3.0730 C   0  0  0  0  0  0  0  0  0  0  0  0
   -0.7750   15.3470   -2.2420 N   0  0  0  0  0  0  0  0  0  0  0  0
   -2.0390   15.6240   -2.6870 C   0  0  0  0  0  0  0  0  0  0  0  0
   -0.7960   15.1330   -0.8810 C   0  0  0  0  0  0  0  0  0  0  0  0
   -2.8690   15.5840   -1.5960 C   0  0  0  0  0  0  0  0  0  0  0  0
   -2.0870   15.2690   -0.4410 C   0  0  0  0  0  0  0  0  0  0  0  0
    0.2480   14.8380   -0.1050 N   0  0  0  0  0  0  0  0  0  0  0  0
   -2.3420   15.0780    0.9360 C   0  0  0  0  0  0  0  0  0  0  0  0
   -0.1360   14.6880    1.1890 C   0  0  0  0  0  0  0  0  0  0  0  0
   -3.6340   15.2040    1.3110 N   0  0  0  0  0  0  0  0  0  0  0  0
   -1.3410   14.7840    1.7430 N   0  0  0  0  0  0  0  0  0  0  0  0
   -4.4940   15.2050    0.2750 C   0  0  0  0  0  0  0  0  0  0  0  0
   -5.8490   14.9340    0.3700 C   0  0  0  0  0  0  0  0  0  0  0  0
   -3.9940   15.4910   -0.9840 C   0  0  0  0  0  0  0  0  0  0  0  0
   -6.6220   14.9640   -0.7780 C   0  0  0  0  0  0  0  0  0  0  0  0
   -6.6000   14.6260    1.4730 N   0  0  0  0  0  0  0  0  0  0  0  0
   -4.7790   15.5090   -2.1210 C   0  0  0  0  0  0  0  0  0  0  0  0
   -7.8140   14.4830    1.0130 C   0  0  0  0  0  0  0  0  0  0  0  0
   -7.8710   14.6700   -0.3400 N   0  0  0  0  0  0  0  0  0  0  0  0
   -6.1310   15.2440   -2.0430 C   0  0  0  0  0  0  0  0  0  0  0  0
   -9.0120   14.1780    1.8070 C   0  0  0  0  0  0  0  0  0  0  0  0
   -9.6310   15.5080    2.2030 C   0  0  0  0  0  0  0  0  0  0  0  0
  -10.9470   15.4350    2.9070 C   0  0  0  0  0  0  0  0  0  0  0  0
  -11.6990   14.3560    2.6240 O   0  0  0  0  0  0  0  0  0  0  0  0
  -11.3570   16.2710    3.6930 O   0  0  0  0  0  0  0  0  0  0  0  0
  1  2  1  0
  2  3  1  0
  2  4  1  0
  3  5  2  0
  4  6  2  0
  5  6  1  0
  4  7  1  0
  6  8  1  0
  7  9  2  0
  8 10  1  0
  8 11  2  0
  9 11  1  0
 10 12  1  0
 12 13  1  0
 12 14  2  0
 13 15  2  0
 13 16  1  0
 14 17  1  0
 16 18  2  0
 15 19  1  0
 18 19  1  0
 15 20  1  0
 17 20  2  0
 18 21  1  0
 21 22  1  0
 22 23  1  0
 23 24  1  0
 23 25  2  0
M  END
