mac-x0338-mac-x0206
     RDKit          3D

 19 20  0  0  0  0  0  0  0  0999 V2000
   -3.5070   13.7220    1.7550 N   0  0  0  0  0  0  0  0  0  0  0  0
   -4.4340   12.9820    1.0670 C   0  0  0  0  0  0  0  0  0  0  0  0
   -5.3710   12.4280    1.6440 O   0  0  0  0  0  0  0  0  0  0  0  0
   -4.2200   12.8920   -0.4540 C   0  0  2  0  0  0  0  0  0  0  0  0
   -3.7870   14.1810   -1.0500 N   0  0  0  0  0  0  0  0  0  0  0  0
   -5.4670   12.3460   -1.2000 C   0  0  0  0  0  0  0  0  0  0  0  0
   -4.3560   15.3400   -0.4080 C   0  0  1  0  0  0  0  0  0  0  0  0
   -3.6490   14.1500   -2.4340 C   0  0  0  0  0  0  0  0  0  0  0  0
   -5.3240   12.4630   -2.6740 N   0  0  0  0  0  0  0  0  0  0  0  0
   -3.6240   15.9810    0.6570 N   0  0  0  0  0  0  0  0  0  0  0  0
   -4.3720   16.2520   -1.4670 O   0  0  0  0  0  0  0  0  0  0  0  0
   -4.3830   13.3330   -3.2000 C   0  0  0  0  0  0  0  0  0  0  0  0
   -5.7710   15.0360    0.1410 C   0  0  0  0  0  0  0  0  0  0  0  0
   -6.9340   14.9820   -0.6520 C   0  0  0  0  0  0  0  0  0  0  0  0
   -5.9390   14.7990    1.5290 C   0  0  0  0  0  0  0  0  0  0  0  0
   -6.8380   15.2020   -2.0020 O   0  0  0  0  0  0  0  0  0  0  0  0
   -8.1900   14.7100   -0.0990 C   0  0  0  0  0  0  0  0  0  0  0  0
   -7.1880   14.5250    2.0870 C   0  0  0  0  0  0  0  0  0  0  0  0
   -8.3140   14.4810    1.2730 C   0  0  0  0  0  0  0  0  0  0  0  0
  1  2  1  0
  2  3  2  0
  4  2  1  1
  4  5  1  0
  4  6  1  0
  5  7  1  0
  5  8  1  0
  6  9  1  0
  7 10  1  1
  7 11  1  0
  8 12  2  0
  9 12  1  0
  7 13  1  0
 13 14  2  0
 13 15  1  0
 14 16  1  0
 14 17  1  0
 15 18  2  0
 17 19  2  0
 18 19  1  0
M  END
