mac-x0365-mac-x0402
     RDKit          3D

 15 16  0  0  0  0  0  0  0  0999 V2000
   -0.6710   14.8260   -1.6070 O   0  0  0  0  0  0  0  0  0  0  0  0
   -1.7490   14.8430   -2.4190 C   0  0  0  0  0  0  0  0  0  0  0  0
   -1.6670   14.9030   -3.6330 O   0  0  0  0  0  0  0  0  0  0  0  0
   -3.0420   14.7770   -1.6820 C   0  0  0  0  0  0  0  0  0  0  0  0
   -4.2600   15.3850   -2.1810 C   0  0  0  0  0  0  0  0  0  0  0  0
   -3.0320   14.1060   -0.5300 C   0  0  0  0  0  0  0  0  0  0  0  0
   -5.4520   15.2060   -1.5810 C   0  0  0  0  0  0  0  0  0  0  0  0
   -4.2620   13.9190    0.2910 C   0  0  2  0  0  0  0  0  0  0  0  0
   -6.5450   15.7880   -2.1140 F   0  0  0  0  0  0  0  0  0  0  0  0
   -5.6110   14.3410   -0.3520 C   0  0  2  0  0  0  0  0  0  0  0  0
   -4.1520   14.9120    1.7720 S   0  0  0  0  0  0  0  0  0  0  0  0
   -6.2300   13.1980   -0.8820 O   0  0  0  0  0  0  0  0  0  0  0  0
   -5.8830   14.9490    1.7970 C   0  0  0  0  0  0  0  0  0  0  0  0
   -6.5280   14.7310    0.7120 N   0  0  0  0  0  0  0  0  0  0  0  0
   -6.4820   15.2110    2.9670 N   0  0  0  0  0  0  0  0  0  0  0  0
  1  2  1  0
  2  3  2  0
  2  4  1  0
  4  5  1  0
  4  6  2  0
  5  7  2  0
  8  6  1  6
  7  9  1  0
  7 10  1  0
  8 10  1  0
  8 11  1  0
 10 12  1  6
 11 13  1  0
 10 14  1  0
 13 14  2  0
 13 15  1  0
M  END
