mac-x0138-diamond-x0900_0_A
     RDKit          3D

 17 19  0  0  0  0  0  0  0  0999 V2000
   -0.0530   14.9100   -3.3350 C   0  0  0  0  0  0  0  0  0  0  0  0
   -1.2380   14.8420   -2.5400 N   0  0  0  0  0  0  0  0  0  0  0  0
   -2.5100   14.9310   -3.0260 C   0  0  0  0  0  0  0  0  0  0  0  0
   -1.3030   14.6790   -1.1780 C   0  0  0  0  0  0  0  0  0  0  0  0
   -3.3770   14.8370   -2.0700 N   0  0  0  0  0  0  0  0  0  0  0  0
   -2.6220   14.6850   -0.9360 C   0  0  0  0  0  0  0  0  0  0  0  0
   -0.3460   14.5410   -0.2560 N   0  0  0  0  0  0  0  0  0  0  0  0
   -3.0520   14.5450    0.3360 C   0  0  0  0  0  0  0  0  0  0  0  0
   -0.8640   14.4060    0.9950 C   0  0  0  0  0  0  0  0  0  0  0  0
    0.0170   14.2310    2.0170 N   0  0  0  0  0  0  0  0  0  0  0  0
   -2.1620   14.4090    1.3710 N   0  0  0  0  0  0  0  0  0  0  0  0
   -4.4970   14.5760    0.2520 C   0  0  1  0  0  0  0  0  0  0  0  0
   -5.5850   14.5570    1.2880 C   0  0  0  0  0  0  0  0  0  0  0  0
   -4.8400   15.8310   -0.4780 C   0  0  0  0  0  0  0  0  0  0  0  0
   -6.1720   15.5280   -0.7750 N   0  0  0  0  0  0  0  0  0  0  0  0
   -6.6960   14.8050    0.2690 C   0  0  0  0  0  0  0  0  0  0  0  0
   -7.8490   14.4510    0.3110 O   0  0  0  0  0  0  0  0  0  0  0  0
  1  2  1  0
  2  3  1  0
  2  4  1  0
  3  5  2  0
  4  6  2  0
  5  6  1  0
  4  7  1  0
  6  8  1  0
  7  9  2  0
  9 10  1  0
  8 11  2  0
  9 11  1  0
 12  8  1  1
 12 13  1  0
 12 14  1  0
 14 15  1  0
 13 16  1  0
 15 16  1  0
 16 17  2  0
M  END
