mac-x0213-mac-x0361
     RDKit          3D

 22 24  0  0  0  0  0  0  0  0999 V2000
   -0.3920   12.0650   -3.5970 O   0  0  0  0  0  0  0  0  0  0  0  0
    0.2360   12.9910   -2.8470 C   0  0  0  0  0  0  0  0  0  0  0  0
    1.0530   12.6230   -2.0280 O   0  0  0  0  0  0  0  0  0  0  0  0
   -0.1590   14.4230   -3.1450 C   0  0  2  0  0  0  0  0  0  0  0  0
   -1.4390   14.5330   -4.0210 C   0  0  1  0  0  0  0  0  0  0  0  0
    0.9580   15.1580   -3.9310 C   0  0  0  0  0  0  0  0  0  0  0  0
   -2.6180   15.1380   -3.4960 O   0  0  0  0  0  0  0  0  0  0  0  0
   -1.1600   15.8160   -4.7180 C   0  0  0  0  0  0  0  0  0  0  0  0
    0.1680   16.1890   -4.6680 C   0  0  0  0  0  0  0  0  0  0  0  0
   -2.1200   16.5940   -5.3430 C   0  0  0  0  0  0  0  0  0  0  0  0
    0.5720   17.3770   -5.2530 C   0  0  0  0  0  0  0  0  0  0  0  0
   -3.3660   14.9790   -2.3820 C   0  0  0  0  0  0  0  0  0  0  0  0
   -1.7280   17.7860   -5.9330 C   0  0  0  0  0  0  0  0  0  0  0  0
   -0.3840   18.1740   -5.8860 C   0  0  0  0  0  0  0  0  0  0  0  0
   -3.0300   14.7550   -1.0460 C   0  0  0  0  0  0  0  0  0  0  0  0
   -4.7000   15.0920   -2.7400 C   0  0  0  0  0  0  0  0  0  0  0  0
   -4.0590   14.6520   -0.0890 C   0  0  0  0  0  0  0  0  0  0  0  0
   -5.7160   14.9960   -1.8130 C   0  0  0  0  0  0  0  0  0  0  0  0
   -5.4100   14.7740   -0.4750 C   0  0  0  0  0  0  0  0  0  0  0  0
   -6.5100   14.6680    0.5220 C   0  0  0  0  0  0  0  0  0  0  0  0
   -6.2530   14.8450    1.8580 N   0  0  0  0  0  0  0  0  0  0  0  0
   -7.6560   14.4410    0.1500 O   0  0  0  0  0  0  0  0  0  0  0  0
  1  2  1  0
  2  3  2  0
  4  2  1  6
  4  5  1  0
  4  6  1  0
  5  7  1  1
  5  8  1  0
  6  9  1  0
  8  9  2  0
  8 10  1  0
  9 11  1  0
  7 12  1  0
 10 13  2  0
 11 14  2  0
 13 14  1  0
 12 15  2  0
 12 16  1  0
 15 17  1  0
 16 18  2  0
 17 19  2  0
 18 19  1  0
 19 20  1  0
 20 21  1  0
 20 22  2  0
M  END
