mac-x0415-mac-x0284
     RDKit          3D

 23 25  0  0  0  0  0  0  0  0999 V2000
    0.6220   11.0490   -2.8310 O   0  0  0  0  0  0  0  0  0  0  0  0
    1.1490   12.3730   -2.8810 C   0  0  2  0  0  0  0  0  0  0  0  0
    0.4120   13.3230   -2.0410 N   0  0  0  0  0  0  0  0  0  0  0  0
    1.1410   12.8800   -4.3540 C   0  0  0  0  0  0  0  0  0  0  0  0
   -0.7670   13.4100   -2.5300 C   0  0  0  0  0  0  0  0  0  0  0  0
    0.8110   14.3240   -4.4210 C   0  0  0  0  0  0  0  0  0  0  0  0
    1.7900   15.3820   -4.2010 C   0  0  0  0  0  0  0  0  0  0  0  0
   -0.2720   15.0550   -4.6800 C   0  0  0  0  0  0  0  0  0  0  0  0
   -1.9740   14.1770   -2.1160 C   0  0  0  0  0  0  0  0  0  0  0  0
    1.4070   16.6210   -4.2790 N   0  0  0  0  0  0  0  0  0  0  0  0
    0.0020   16.4900   -4.4760 C   0  0  1  0  0  0  0  0  0  0  0  0
   -1.6050   14.7090   -5.0460 C   0  0  0  0  0  0  0  0  0  0  0  0
   -2.2020   14.5630   -0.7790 C   0  0  0  0  0  0  0  0  0  0  0  0
   -2.9180   14.5040   -3.0740 C   0  0  0  0  0  0  0  0  0  0  0  0
   -2.7360   14.1430   -4.3660 O   0  0  0  0  0  0  0  0  0  0  0  0
   -0.7720   17.4520   -5.3060 C   0  0  0  0  0  0  0  0  0  0  0  0
   -2.4150   15.6610   -5.5800 C   0  0  0  0  0  0  0  0  0  0  0  0
   -3.3870   15.2670   -0.4460 C   0  0  0  0  0  0  0  0  0  0  0  0
   -4.0710   15.1940   -2.7540 C   0  0  0  0  0  0  0  0  0  0  0  0
   -4.1590   15.2250   -6.0800 Br  0  0  0  0  0  0  0  0  0  0  0  0
   -3.6790   15.6880    0.9630 C   0  0  0  0  0  0  0  0  0  0  0  0
   -1.9480   17.0370   -5.8110 C   0  0  0  0  0  0  0  0  0  0  0  0
   -4.3070   15.5730   -1.4460 C   0  0  0  0  0  0  0  0  0  0  0  0
  2  1  1  6
  2  3  1  0
  2  4  1  0
  3  5  2  3
  4  6  1  0
  6  7  1  0
  6  8  2  0
  5  9  1  0
  7 10  2  0
  8 11  1  0
 10 11  1  0
  8 12  1  0
  9 13  2  0
  9 14  1  0
 14 15  1  0
 11 16  1  6
 12 17  2  0
 13 18  1  0
 14 19  2  0
 17 20  1  0
 18 21  1  0
 16 22  2  0
 17 22  1  0
 18 23  2  0
 19 23  1  0
M  END
