mac-x0415-mac-x0436
     RDKit          3D

 26 29  0  0  0  0  0  0  0  0999 V2000
    0.3970   11.1640   -3.0570 O   0  0  0  0  0  0  0  0  0  0  0  0
    0.7840   12.4450   -2.9720 C   0  0  0  0  0  0  0  0  0  0  0  0
    0.8160   12.9720   -1.8710 O   0  0  0  0  0  0  0  0  0  0  0  0
    1.1800   13.1390   -4.2760 C   0  0  1  0  0  0  0  0  0  0  0  0
    0.9000   12.5340   -5.6230 C   0  0  0  0  0  0  0  0  0  0  0  0
    0.7900   14.5350   -4.3520 C   0  0  0  0  0  0  0  0  0  0  0  0
    1.7580   15.5960   -4.2180 C   0  0  0  0  0  0  0  0  0  0  0  0
   -0.3110   15.2300   -4.5840 C   0  0  0  0  0  0  0  0  0  0  0  0
   -0.1540   11.4990   -5.7870 C   0  0  0  0  0  0  0  0  0  0  0  0
    1.3690   16.8190   -4.3510 N   0  0  0  0  0  0  0  0  0  0  0  0
   -0.0370   16.6770   -4.5050 C   0  0  1  0  0  0  0  0  0  0  0  0
   -1.6580   14.8410   -4.8760 C   0  0  0  0  0  0  0  0  0  0  0  0
   -1.4170   11.3840   -4.9050 C   0  0  0  0  0  0  0  0  0  0  0  0
    0.1100   10.7040   -6.7480 N   0  0  0  0  0  0  0  0  0  0  0  0
   -1.6470   12.1350   -3.9680 O   0  0  0  0  0  0  0  0  0  0  0  0
   -0.8110   17.5360   -5.4340 C   0  0  0  0  0  0  0  0  0  0  0  0
   -2.4600   15.7220   -5.5100 C   0  0  0  0  0  0  0  0  0  0  0  0
   -2.2640   10.3590   -5.2640 N   0  0  0  0  0  0  0  0  0  0  0  0
   -0.7550    9.6790   -7.0220 C   0  0  0  0  0  0  0  0  0  0  0  0
   -4.1990   15.2290   -5.9590 Br  0  0  0  0  0  0  0  0  0  0  0  0
   -1.9860   17.0670   -5.8950 C   0  0  0  0  0  0  0  0  0  0  0  0
   -1.9370    9.4800   -6.3070 C   0  0  0  0  0  0  0  0  0  0  0  0
   -0.4040    8.8290   -8.0550 C   0  0  0  0  0  0  0  0  0  0  0  0
   -1.2320    7.7670   -8.3860 C   0  0  0  0  0  0  0  0  0  0  0  0
   -2.7730    8.4180   -6.6280 C   0  0  0  0  0  0  0  0  0  0  0  0
   -2.4150    7.5620   -7.6720 C   0  0  0  0  0  0  0  0  0  0  0  0
  1  2  1  0
  2  3  2  0
  2  4  1  0
  4  5  1  6
  4  6  1  0
  6  7  1  0
  6  8  2  0
  5  9  1  0
  7 10  2  0
  8 11  1  0
 10 11  1  0
  8 12  1  0
  9 13  1  0
  9 14  2  0
 13 15  2  0
 11 16  1  6
 12 17  2  0
 13 18  1  0
 14 19  1  0
 17 20  1  0
 16 21  2  0
 17 21  1  0
 18 22  1  0
 19 22  2  0
 19 23  1  0
 23 24  2  0
 22 25  1  0
 24 26  1  0
 25 26  2  0
M  END
