mac-x0455-diamond-x0253_0_A
     RDKit          3D

 25 26  0  0  0  0  0  0  0  0999 V2000
   -2.3560   14.6490   -2.4420 C   0  0  0  0  0  0  0  0  0  0  0  0
   -1.1040   14.3910   -3.2920 C   0  0  1  0  0  0  0  0  0  0  0  0
   -0.8400   15.6170   -3.9970 O   0  0  0  0  0  0  0  0  0  0  0  0
    0.0620   14.0730   -2.3030 C   0  0  0  0  0  0  0  0  0  0  0  0
   -1.3010   13.2680   -4.3180 C   0  0  0  0  0  0  0  0  0  0  0  0
    0.8650   14.9340   -1.9340 O   0  0  0  0  0  0  0  0  0  0  0  0
    0.0930   12.7620   -1.9050 N   0  0  0  0  0  0  0  0  0  0  0  0
   -2.1230   12.1550   -4.0400 C   0  0  0  0  0  0  0  0  0  0  0  0
   -0.6690   13.3110   -5.5740 C   0  0  0  0  0  0  0  0  0  0  0  0
    0.6060   11.9790   -2.7850 C   0  0  0  0  0  0  0  0  0  0  0  0
   -2.3090   11.1340   -4.9720 C   0  0  0  0  0  0  0  0  0  0  0  0
   -0.8600   12.2860   -6.5030 C   0  0  0  0  0  0  0  0  0  0  0  0
    0.6090   10.6560   -2.4900 O   0  0  0  0  0  0  0  0  0  0  0  0
    1.2000   12.3920   -4.1420 C   0  0  0  0  0  0  0  0  0  0  0  0
   -1.6780   11.2040   -6.2010 C   0  0  0  0  0  0  0  0  0  0  0  0
    0.5980   11.6260   -5.2200 N   0  0  0  0  0  0  0  0  0  0  0  0
    1.1920   11.5640   -6.4680 C   0  0  0  0  0  0  0  0  0  0  0  0
    2.1980   12.1960   -6.6900 O   0  0  0  0  0  0  0  0  0  0  0  0
    0.5610   10.6570   -7.4980 C   0  0  0  0  0  0  0  0  0  0  0  0
   -0.3640    9.6720   -7.1270 C   0  0  0  0  0  0  0  0  0  0  0  0
    0.8800   10.7790   -8.8590 C   0  0  0  0  0  0  0  0  0  0  0  0
   -0.9600    8.8420   -8.0780 C   0  0  0  0  0  0  0  0  0  0  0  0
    0.2960    9.9550   -9.8120 C   0  0  0  0  0  0  0  0  0  0  0  0
   -1.9560    7.8030   -7.6470 C   0  0  0  0  0  0  0  0  0  0  0  0
   -0.6250    8.9880   -9.4250 C   0  0  0  0  0  0  0  0  0  0  0  0
  2  1  1  1
  2  3  1  0
  2  4  1  0
  2  5  1  0
  4  6  2  0
  4  7  1  0
  5  8  2  0
  5  9  1  0
  7 10  2  3
  8 11  1  0
  9 12  2  0
 10 13  1  0
 10 14  1  0
 11 15  2  0
 12 15  1  0
 14 16  1  0
 16 17  1  0
 17 18  2  0
 17 19  1  0
 19 20  2  0
 19 21  1  0
 20 22  1  0
 21 23  2  0
 22 24  1  0
 22 25  2  0
 23 25  1  0
M  END
