mac-x0433-mac-x0396
     RDKit          3D

 11 11  0  0  0  0  0  0  0  0999 V2000
   -3.4040   15.3810    0.7750 C   0  0  0  0  0  0  0  0  0  0  0  0
   -2.3170   14.7860   -0.0430 C   0  0  0  0  0  0  0  0  0  0  0  0
   -2.3360   14.7030   -1.2620 O   0  0  0  0  0  0  0  0  0  0  0  0
   -4.7240   15.1660    0.1320 C   0  0  0  0  0  0  0  0  0  0  0  0
   -4.7880   15.2700   -1.2150 N   0  0  0  0  0  0  0  0  0  0  0  0
   -5.8170   14.8690    0.8970 C   0  0  0  0  0  0  0  0  0  0  0  0
   -5.9860   15.0680   -1.7760 C   0  0  0  0  0  0  0  0  0  0  0  0
   -7.0040   14.6850    0.2250 C   0  0  0  0  0  0  0  0  0  0  0  0
   -8.2480   14.3660    0.9850 C   0  0  0  0  0  0  0  0  0  0  0  0
   -6.0810   15.1480   -3.1440 N   0  0  0  0  0  0  0  0  0  0  0  0
   -7.1010   14.7830   -1.1100 N   0  0  0  0  0  0  0  0  0  0  0  0
  1  2  1  0
  2  3  2  0
  1  4  1  0
  4  5  2  0
  4  6  1  0
  5  7  1  0
  6  8  2  0
  8  9  1  0
  7 10  1  0
  7 11  2  0
  8 11  1  0
M  END
