mac-x0360-mac-x0337
     RDKit          3D

 12 12  0  0  0  0  0  0  0  0999 V2000
   -7.6240   11.5760    1.7350 Cl  0  0  0  0  0  0  0  0  0  0  0  0
   -6.4120   11.8410    0.5380 C   0  0  0  0  0  0  0  0  0  0  0  0
   -6.1900   10.8720   -0.4340 C   0  0  0  0  0  0  0  0  0  0  0  0
   -5.6680   13.0200    0.5550 C   0  0  0  0  0  0  0  0  0  0  0  0
   -4.6890   13.2240   -0.4220 C   0  0  0  0  0  0  0  0  0  0  0  0
   -5.2070   11.0830   -1.3970 C   0  0  0  0  0  0  0  0  0  0  0  0
   -4.9260    9.8790   -2.5980 Cl  0  0  0  0  0  0  0  0  0  0  0  0
   -3.7400   14.7310   -0.4250 S   0  0  0  0  0  0  0  0  0  0  0  0
   -4.4500   12.2540   -1.4030 C   0  0  0  0  0  0  0  0  0  0  0  0
   -2.7360   14.5320   -1.7630 N   0  0  0  0  0  0  0  0  0  0  0  0
   -4.6440   15.8100   -0.7220 O   0  0  0  0  0  0  0  0  0  0  0  0
   -2.8640   14.7530    0.7230 O   0  0  0  0  0  0  0  0  0  0  0  0
  1  2  1  0
  2  3  2  0
  2  4  1  0
  4  5  2  0
  3  6  1  0
  6  7  1  0
  5  8  1  0
  5  9  1  0
  6  9  2  0
  8 10  1  0
  8 11  2  0
  8 12  2  0
M  END
