mac-x0228-mac-x0341
     RDKit          3D

 14 15  0  0  0  0  0  0  0  0999 V2000
   -0.9570   14.5940   -1.7120 O   0  0  0  0  0  0  0  0  0  0  0  0
   -1.8750   14.6840   -2.6830 C   0  0  0  0  0  0  0  0  0  0  0  0
   -1.5610   14.6900   -3.8590 O   0  0  0  0  0  0  0  0  0  0  0  0
   -3.2600   14.7660   -2.1730 C   0  0  0  0  0  0  0  0  0  0  0  0
   -3.4950   14.5590   -0.8010 C   0  0  0  0  0  0  0  0  0  0  0  0
   -4.3250   15.0420   -3.0500 C   0  0  0  0  0  0  0  0  0  0  0  0
   -4.8030   14.6270   -0.3460 C   0  0  0  0  0  0  0  0  0  0  0  0
   -5.6300   15.1080   -2.5770 C   0  0  0  0  0  0  0  0  0  0  0  0
   -5.8250   14.8960   -1.2350 C   0  0  0  0  0  0  0  0  0  0  0  0
   -5.3090   14.4350    1.0420 C   0  0  0  0  0  0  0  0  0  0  0  0
   -7.0690   14.9050   -0.5140 C   0  0  0  0  0  0  0  0  0  0  0  0
   -6.8260   14.2450    0.8450 C   0  0  2  0  0  0  0  0  0  0  0  0
   -7.6140   14.8120    1.9460 N   0  0  0  0  0  0  0  0  0  0  0  0
   -8.0800   15.3620   -0.9860 O   0  0  0  0  0  0  0  0  0  0  0  0
  1  2  1  0
  2  3  2  0
  2  4  1  0
  4  5  2  0
  4  6  1  0
  5  7  1  0
  6  8  2  0
  7  9  2  0
  8  9  1  0
  7 10  1  0
  9 11  1  0
 10 12  1  0
 11 12  1  0
 12 13  1  1
 11 14  2  0
M  END
