mac-x0179-diamond-x0849_0_A
     RDKit          3D

 29 32  0  0  0  0  0  0  0  0999 V2000
    1.6220   12.8660   -2.3260 O   0  0  0  0  0  0  0  0  0  0  0  0
    0.9760   12.1110   -3.2320 C   0  0  0  0  0  0  0  0  0  0  0  0
    0.6550   10.9700   -2.9530 O   0  0  0  0  0  0  0  0  0  0  0  0
    0.7390   12.8490   -4.5350 C   0  0  0  0  0  0  0  0  0  0  0  0
    0.0110   11.9990   -5.4570 N   0  0  0  0  0  0  0  0  0  0  0  0
    0.7180   11.4790   -6.5080 C   0  0  0  0  0  0  0  0  0  0  0  0
   -1.1370   11.2740   -5.2470 C   0  0  0  0  0  0  0  0  0  0  0  0
    1.8020   11.8200   -6.9080 O   0  0  0  0  0  0  0  0  0  0  0  0
   -2.0690   11.3380   -4.3820 N   0  0  0  0  0  0  0  0  0  0  0  0
   -0.0580   10.3830   -7.0740 C   0  0  0  0  0  0  0  0  0  0  0  0
   -1.1870   10.2530   -6.3020 C   0  0  0  0  0  0  0  0  0  0  0  0
   -2.1900   12.2790   -3.2890 C   0  0  0  0  0  0  0  0  0  0  0  0
    0.1930    9.5650   -8.1620 C   0  0  0  0  0  0  0  0  0  0  0  0
   -2.1450    9.2890   -6.5660 C   0  0  0  0  0  0  0  0  0  0  0  0
   -2.4390   13.6760   -3.8590 C   0  0  0  0  0  0  0  0  0  0  0  0
   -0.7630    8.5820   -8.4510 C   0  0  0  0  0  0  0  0  0  0  0  0
   -1.9190    8.4450   -7.6600 C   0  0  0  0  0  0  0  0  0  0  0  0
   -3.6680   14.3410   -3.2480 C   0  0  0  0  0  0  0  0  0  0  0  0
   -3.3050   15.4110   -2.3880 O   0  0  0  0  0  0  0  0  0  0  0  0
   -3.4530   15.2860   -1.0290 C   0  0  0  0  0  0  0  0  0  0  0  0
   -2.2960   14.9320   -0.2810 C   0  0  0  0  0  0  0  0  0  0  0  0
   -4.6450   15.4900   -0.3620 C   0  0  0  0  0  0  0  0  0  0  0  0
   -2.4230   14.8100    1.1040 C   0  0  0  0  0  0  0  0  0  0  0  0
   -4.6420   15.3370    1.0010 C   0  0  0  0  0  0  0  0  0  0  0  0
   -1.0170   14.6990   -0.8340 C   0  0  0  0  0  0  0  0  0  0  0  0
   -3.5660   15.0100    1.7090 N   0  0  0  0  0  0  0  0  0  0  0  0
   -1.4130   14.4920    1.8830 N   0  0  0  0  0  0  0  0  0  0  0  0
    0.0440   14.3680   -0.0030 C   0  0  0  0  0  0  0  0  0  0  0  0
   -0.2200   14.2790    1.3460 C   0  0  0  0  0  0  0  0  0  0  0  0
  1  2  1  0
  2  3  2  0
  2  4  1  0
  4  5  1  0
  5  6  1  0
  5  7  1  0
  6  8  2  0
  7  9  2  3
  6 10  1  0
  7 11  1  0
 10 11  2  0
  9 12  1  0
 10 13  1  0
 11 14  1  0
 12 15  1  0
 13 16  2  0
 14 17  2  0
 16 17  1  0
 15 18  1  0
 18 19  1  0
 19 20  1  0
 20 21  1  0
 20 22  2  0
 21 23  2  0
 22 24  1  0
 21 25  1  0
 23 26  1  0
 24 26  2  0
 23 27  1  0
 25 28  2  0
 27 29  2  0
 28 29  1  0
M  END
