mac-x0412-diamond-x0849_0_A
     RDKit          3D

 16 18  0  0  0  0  0  0  0  0999 V2000
   -7.8330   14.9660   -0.4150 O   0  0  0  0  0  0  0  0  0  0  0  0
   -6.7720   14.6650    0.1210 C   0  0  0  0  0  0  0  0  0  0  0  0
   -6.7010   14.5720    1.4810 N   0  0  0  0  0  0  0  0  0  0  0  0
   -5.4660   14.3710   -0.6380 C   0  0  2  0  0  0  0  0  0  0  0  0
   -4.1550   14.3140    0.2280 C   0  0  2  0  0  0  0  0  0  0  0  0
   -5.6120   14.9850    2.1650 C   0  0  0  0  0  0  0  0  0  0  0  0
   -5.4100   15.1410   -1.9560 C   0  0  0  0  0  0  0  0  0  0  0  0
   -4.3970   14.8880    1.6220 C   0  0  0  0  0  0  0  0  0  0  0  0
   -2.7810   14.8500   -0.3890 C   0  0  2  0  0  0  0  0  0  0  0  0
   -4.0750   15.5920   -2.4190 C   0  0  0  0  0  0  0  0  0  0  0  0
   -2.9480   15.4840   -1.7490 C   0  0  0  0  0  0  0  0  0  0  0  0
   -1.6910   13.7360   -0.6810 C   0  0  0  0  0  0  0  0  0  0  0  0
   -2.1300   15.8210    0.6010 C   0  0  0  0  0  0  0  0  0  0  0  0
   -1.5060   15.0390    1.6480 N   0  0  0  0  0  0  0  0  0  0  0  0
   -0.4010   13.7700    0.1240 C   0  0  0  0  0  0  0  0  0  0  0  0
   -0.3820   14.4180    1.2700 C   0  0  0  0  0  0  0  0  0  0  0  0
  1  2  2  0
  2  3  1  0
  2  4  1  0
  4  5  1  0
  3  6  1  0
  4  7  1  6
  5  8  1  1
  6  8  2  0
  5  9  1  0
  7 10  1  0
  9 11  1  6
 10 11  2  0
  9 12  1  0
  9 13  1  0
 13 14  1  0
 12 15  1  0
 14 16  1  0
 15 16  2  0
M  END
