mac-x0496-mac-x0213
     RDKit          3D

 31 34  0  0  0  0  0  0  0  0999 V2000
   -9.7340   17.8440    4.8130 C   0  0  0  0  0  0  0  0  0  0  0  0
   -9.9040   16.8590    3.7250 C   0  0  0  0  0  0  0  0  0  0  0  0
  -10.9480   16.8590    2.8910 N   0  0  0  0  0  0  0  0  0  0  0  0
   -8.9910   15.8710    3.5000 N   0  0  0  0  0  0  0  0  0  0  0  0
  -10.6940   15.7770    2.0420 O   0  0  0  0  0  0  0  0  0  0  0  0
   -9.5150   15.2380    2.4720 C   0  0  0  0  0  0  0  0  0  0  0  0
   -9.0010   14.0520    1.7490 C   0  0  0  0  0  0  0  0  0  0  0  0
   -7.5740   14.1980    1.5740 N   0  0  0  0  0  0  0  0  0  0  0  0
   -7.0480   14.5580    0.3590 C   0  0  0  0  0  0  0  0  0  0  0  0
   -7.7210   14.7620   -0.6400 O   0  0  0  0  0  0  0  0  0  0  0  0
   -5.5850   14.6900    0.3070 C   0  0  0  0  0  0  0  0  0  0  0  0
   -4.8080   14.7130    1.4700 C   0  0  0  0  0  0  0  0  0  0  0  0
   -4.9930   14.7930   -0.9440 C   0  0  0  0  0  0  0  0  0  0  0  0
   -3.4320   14.8330    1.3940 C   0  0  0  0  0  0  0  0  0  0  0  0
   -3.6280   14.9130   -1.0190 C   0  0  0  0  0  0  0  0  0  0  0  0
   -2.8960   15.0390   -2.2650 C   0  0  0  0  0  0  0  0  0  0  0  0
   -2.8390   14.9330    0.1480 C   0  0  0  0  0  0  0  0  0  0  0  0
   -1.6860   14.7730   -2.2060 N   0  0  0  0  0  0  0  0  0  0  0  0
   -3.6090   15.4920   -3.3060 O   0  0  0  0  0  0  0  0  0  0  0  0
   -0.7120   14.9720   -3.2030 C   0  0  2  0  0  0  0  0  0  0  0  0
    0.6240   14.3060   -3.1950 C   0  0  1  0  0  0  0  0  0  0  0  0
   -0.8180   15.9720   -4.2860 C   0  0  0  0  0  0  0  0  0  0  0  0
    0.6320   12.8000   -3.0530 C   0  0  0  0  0  0  0  0  0  0  0  0
    0.4380   16.0620   -4.8660 C   0  0  0  0  0  0  0  0  0  0  0  0
    1.4280   15.0450   -4.2900 C   0  0  0  0  0  0  0  0  0  0  0  0
   -1.8940   16.7540   -4.6960 C   0  0  0  0  0  0  0  0  0  0  0  0
   -0.0740   12.1220   -3.9790 O   0  0  0  0  0  0  0  0  0  0  0  0
    1.1910   12.1960   -2.1660 O   0  0  0  0  0  0  0  0  0  0  0  0
   -1.6860   17.6890   -5.6980 C   0  0  0  0  0  0  0  0  0  0  0  0
    0.6490   17.0020   -5.8460 C   0  0  0  0  0  0  0  0  0  0  0  0
   -0.4110   17.8190   -6.2610 C   0  0  0  0  0  0  0  0  0  0  0  0
  1  2  1  0
  2  3  2  0
  2  4  1  0
  3  5  1  0
  4  6  2  0
  5  6  1  0
  6  7  1  0
  7  8  1  0
  8  9  1  0
  9 10  2  0
  9 11  1  0
 11 12  2  0
 11 13  1  0
 12 14  1  0
 13 15  2  0
 15 16  1  0
 14 17  2  0
 15 17  1  0
 16 18  2  3
 16 19  1  0
 20 18  1  1
 20 21  1  0
 20 22  1  0
 21 23  1  6
 22 24  2  0
 21 25  1  0
 24 25  1  0
 22 26  1  0
 23 27  1  0
 23 28  2  0
 26 29  2  0
 24 30  1  0
 29 31  1  0
 30 31  2  0
M  END
