mac-x0392-mac-x0182
     RDKit          3D

 23 25  0  0  0  0  0  0  0  0999 V2000
    0.2370   13.9550    0.1570 N   0  0  0  0  0  0  0  0  0  0  0  0
   -1.1030   14.3650    0.0600 C   0  0  0  0  0  0  0  0  0  0  0  0
   -1.9180   14.4760    1.1730 C   0  0  0  0  0  0  0  0  0  0  0  0
   -1.7140   14.6840   -1.1500 C   0  0  0  0  0  0  0  0  0  0  0  0
   -0.9700   14.6130   -2.4030 C   0  0  0  0  0  0  0  0  0  0  0  0
   -3.0550   15.0840   -1.2230 C   0  0  0  0  0  0  0  0  0  0  0  0
   -3.2170   14.8630    1.1520 N   0  0  0  0  0  0  0  0  0  0  0  0
   -1.1920   13.9720   -3.4590 N   0  0  0  0  0  0  0  0  0  0  0  0
    0.1290   15.3790   -2.3580 O   0  0  0  0  0  0  0  0  0  0  0  0
   -3.7590   15.1590   -0.0420 C   0  0  0  0  0  0  0  0  0  0  0  0
   -2.3610   13.1350   -3.4710 C   0  0  0  0  0  0  0  0  0  0  0  0
   -2.1410   12.0770   -4.4340 N   0  0  0  0  0  0  0  0  0  0  0  0
   -0.9060   11.1900   -4.4230 S   0  0  2  0  0  0  0  0  0  0  0  0
   -0.2530   10.4750   -3.3460 O   0  0  0  0  0  0  0  0  0  0  0  0
    0.2830   12.1340   -5.1530 N   0  0  0  0  0  0  0  0  0  0  0  0
   -1.1250   10.1320   -5.7670 C   0  0  0  0  0  0  0  0  0  0  0  0
    0.7150   11.5470   -6.3140 C   0  0  0  0  0  0  0  0  0  0  0  0
   -0.1820   10.4380   -6.7350 C   0  0  0  0  0  0  0  0  0  0  0  0
   -2.0720    9.1410   -5.9050 C   0  0  0  0  0  0  0  0  0  0  0  0
    1.7180   11.8560   -6.9160 O   0  0  0  0  0  0  0  0  0  0  0  0
   -2.0570    8.4220   -7.0990 C   0  0  0  0  0  0  0  0  0  0  0  0
   -0.1580    9.7290   -7.9250 C   0  0  0  0  0  0  0  0  0  0  0  0
   -1.1110    8.7150   -8.1010 C   0  0  0  0  0  0  0  0  0  0  0  0
  1  2  1  0
  2  3  2  0
  2  4  1  0
  4  5  1  0
  4  6  2  0
  3  7  1  0
  5  8  2  3
  5  9  1  0
  6 10  1  0
  7 10  2  0
  8 11  1  0
 11 12  1  0
 12 13  2  0
 13 14  2  0
 13 15  1  6
 13 16  1  0
 15 17  1  0
 16 18  2  0
 17 18  1  0
 16 19  1  0
 17 20  2  0
 19 21  2  0
 18 22  1  0
 21 23  1  0
 22 23  2  0
M  END
