mac-x0305-mac-x0161
     RDKit          3D

 21 23  0  0  0  0  0  0  0  0999 V2000
   -0.8650   12.7090   -1.0250 O   0  0  0  0  0  0  0  0  0  0  0  0
   -0.9770   13.9230   -1.6570 C   0  0  0  0  0  0  0  0  0  0  0  0
   -0.7250   13.9400   -2.9050 N   0  0  0  0  0  0  0  0  0  0  0  0
   -1.4300   15.1400   -0.8370 C   0  0  2  0  0  0  0  0  0  0  0  0
   -2.2160   14.8270    0.5010 C   0  0  2  0  0  0  0  0  0  0  0  0
   -2.2730   15.8500   -1.8010 N   0  0  0  0  0  0  0  0  0  0  0  0
   -0.1700   15.7010   -0.3940 N   0  0  0  0  0  0  0  0  0  0  0  0
   -0.4990   12.7780   -3.4110 C   0  0  0  0  0  0  0  0  0  0  0  0
   -2.4900   13.4790    0.7190 O   0  0  0  0  0  0  0  0  0  0  0  0
   -3.5900   15.6540    0.6090 C   0  0  2  0  0  0  0  0  0  0  0  0
   -3.6310   15.7350   -1.8000 C   0  0  0  0  0  0  0  0  0  0  0  0
   -1.2670   15.1590    1.5520 N   0  0  0  0  0  0  0  0  0  0  0  0
    0.0060   15.0290    0.8600 C   0  0  0  0  0  0  0  0  0  0  0  0
   -0.8670   12.3150   -4.6410 C   0  0  0  0  0  0  0  0  0  0  0  0
    0.1490   11.8070   -2.7160 O   0  0  0  0  0  0  0  0  0  0  0  0
   -4.6150   15.2960    1.6090 N   0  0  0  0  0  0  0  0  0  0  0  0
   -4.3140   15.6460   -0.6820 C   0  0  0  0  0  0  0  0  0  0  0  0
    0.1890   10.6870   -3.5010 N   0  0  0  0  0  0  0  0  0  0  0  0
   -0.4150   11.0100   -4.6320 C   0  0  0  0  0  0  0  0  0  0  0  0
   -0.5610   10.1330   -5.6320 O   0  0  0  0  0  0  0  0  0  0  0  0
   -1.8610   10.1590   -6.2010 C   0  0  0  0  0  0  0  0  0  0  0  0
  1  2  1  0
  2  3  2  3
  4  2  1  6
  4  5  1  0
  4  6  1  0
  4  7  1  0
  3  8  1  0
  5  9  1  6
  5 10  1  0
  6 11  1  0
  5 12  1  0
  7 13  1  0
 12 13  1  0
  8 14  2  0
  8 15  1  0
 10 16  1  1
 10 17  1  0
 11 17  2  0
 15 18  1  0
 14 19  1  0
 18 19  2  0
 19 20  1  0
 20 21  1  0
M  END
