mac-x0584-mac-x0415
     RDKit          3D

 27 31  0  0  0  0  0  0  0  0999 V2000
   -2.7670   13.6760   -5.9030 Br  0  0  0  0  0  0  0  0  0  0  0  0
   -2.1600   15.1220   -4.7780 C   0  0  2  0  0  0  0  0  0  0  0  0
   -0.6650   15.3680   -4.4690 C   0  0  1  0  0  0  0  0  0  0  0  0
   -2.8130   15.0340   -3.3940 C   0  0  0  0  0  0  0  0  0  0  0  0
   -0.4350   14.7200   -3.0990 C   0  0  1  0  0  0  0  0  0  0  0  0
   -1.7140   14.7300   -2.4540 N   0  0  0  0  0  0  0  0  0  0  0  0
    0.5360   14.9860   -5.2850 C   0  0  0  0  0  0  0  0  0  0  0  0
   -0.4520   16.8680   -4.5590 C   0  0  0  0  0  0  0  0  0  0  0  0
    0.8960   13.5420   -5.6010 C   0  0  0  0  0  0  0  0  0  0  0  0
    0.0570   13.2780   -3.2250 C   0  0  0  0  0  0  0  0  0  0  0  0
   -1.8290   14.7430   -1.1000 C   0  0  0  0  0  0  0  0  0  0  0  0
    1.1510   16.1520   -5.5760 C   0  0  0  0  0  0  0  0  0  0  0  0
    0.5730   17.2750   -5.1530 N   0  0  0  0  0  0  0  0  0  0  0  0
    1.3450   12.6010   -4.4740 C   0  0  0  0  0  0  0  0  0  0  0  0
    0.7780   12.5910   -2.0240 C   0  0  0  0  0  0  0  0  0  0  0  0
   -1.0040   12.1430   -3.0980 C   0  0  0  0  0  0  0  0  0  0  0  0
   -0.6810   14.5520   -0.3550 N   0  0  0  0  0  0  0  0  0  0  0  0
   -2.9390   14.9350   -0.4300 C   0  0  0  0  0  0  0  0  0  0  0  0
    0.6520   11.4380   -4.4870 O   0  0  0  0  0  0  0  0  0  0  0  0
    2.2090   12.7820   -3.6250 O   0  0  0  0  0  0  0  0  0  0  0  0
    0.0740   11.2770   -2.4290 C   0  0  0  0  0  0  0  0  0  0  0  0
   -0.6960   14.5230    1.0030 C   0  0  0  0  0  0  0  0  0  0  0  0
   -2.8880   14.9210    1.0440 C   0  0  0  0  0  0  0  0  0  0  0  0
   -4.3020   15.1790   -0.7360 C   0  0  0  0  0  0  0  0  0  0  0  0
   -1.7340   14.6870    1.7420 N   0  0  0  0  0  0  0  0  0  0  0  0
   -4.0560   15.1490    1.5490 N   0  0  0  0  0  0  0  0  0  0  0  0
   -4.8890   15.2880    0.4530 C   0  0  0  0  0  0  0  0  0  0  0  0
  2  1  1  1
  2  3  1  0
  2  4  1  0
  3  5  1  0
  4  6  1  0
  5  6  1  0
  3  7  1  0
  3  8  1  1
  7  9  1  0
  5 10  1  6
  6 11  1  0
  7 12  2  0
  8 13  2  0
 12 13  1  0
  9 14  1  0
 10 15  1  0
 10 16  1  0
 11 17  1  0
 11 18  2  0
 14 19  1  0
 14 20  2  0
 15 21  1  0
 16 21  1  0
 17 22  1  0
 18 23  1  0
 18 24  1  0
 22 25  2  0
 23 25  1  0
 23 26  2  0
 24 27  2  0
 26 27  1  0
M  END
