mac-x0148-mac-x0301
     RDKit          3D

 21 24  0  0  0  0  0  0  0  0999 V2000
   -2.2850   15.7780   -3.6190 O   0  0  0  0  0  0  0  0  0  0  0  0
   -3.1930   14.9720   -3.0520 C   0  0  0  0  0  0  0  0  0  0  0  0
   -3.9520   14.3190   -3.7310 O   0  0  0  0  0  0  0  0  0  0  0  0
   -3.0960   14.9790   -1.6090 C   0  0  0  0  0  0  0  0  0  0  0  0
   -1.9480   14.6550   -0.8660 C   0  0  0  0  0  0  0  0  0  0  0  0
   -4.0520   15.3070   -0.7160 C   0  0  0  0  0  0  0  0  0  0  0  0
   -2.4060   14.8190    0.5410 C   0  0  0  0  0  0  0  0  0  0  0  0
   -0.6890   14.2780   -1.1340 C   0  0  0  0  0  0  0  0  0  0  0  0
   -3.6510   15.2170    0.6200 N   0  0  0  0  0  0  0  0  0  0  0  0
   -0.1680   14.0720   -2.4370 N   0  0  0  0  0  0  0  0  0  0  0  0
    0.1010   14.1000   -0.0160 N   0  0  0  0  0  0  0  0  0  0  0  0
   -1.5890   14.5530    1.6010 N   0  0  0  0  0  0  0  0  0  0  0  0
   -1.0990   14.0400   -3.6050 C   0  0  1  0  0  0  0  0  0  0  0  0
    0.8220   12.9710   -2.5230 C   0  0  0  0  0  0  0  0  0  0  0  0
   -0.3930   14.2170    1.2630 C   0  0  0  0  0  0  0  0  0  0  0  0
   -1.2070   15.2670   -4.5050 C   0  0  0  0  0  0  0  0  0  0  0  0
   -0.6820   13.1070   -4.7300 C   0  0  2  0  0  0  0  0  0  0  0  0
    0.1060   11.6540   -2.8490 C   0  0  0  0  0  0  0  0  0  0  0  0
   -1.8170   13.3840   -5.6980 C   0  0  0  0  0  0  0  0  0  0  0  0
   -2.0460   14.8090   -5.5920 O   0  0  0  0  0  0  0  0  0  0  0  0
   -0.4740   11.6760   -4.2680 C   0  0  0  0  0  0  0  0  0  0  0  0
  1  2  1  0
  2  3  2  0
  2  4  1  0
  4  5  1  0
  4  6  2  0
  5  7  1  0
  5  8  2  0
  6  9  1  0
  7  9  2  0
  8 10  1  0
  8 11  1  0
  7 12  1  0
 10 13  1  0
 10 14  1  0
 11 15  1  0
 12 15  2  0
 13 16  1  6
 13 17  1  0
 14 18  1  0
 17 19  1  6
 16 20  1  0
 19 20  1  0
 17 21  1  0
 18 21  1  0
M  END
