mac-x0326-diamond-x0587_0_A
     RDKit          3D

 27 29  0  0  0  0  0  0  0  0999 V2000
   -5.4000   15.5040   -1.9040 C   0  0  0  0  0  0  0  0  0  0  0  0
   -5.4870   14.1410   -1.3080 C   0  0  0  0  0  0  0  0  0  0  0  0
   -4.1850   13.7570   -1.0930 F   0  0  0  0  0  0  0  0  0  0  0  0
   -3.9680   15.5040   -1.7550 C   0  0  0  0  0  0  0  0  0  0  0  0
   -5.9700   13.2340   -2.2090 F   0  0  0  0  0  0  0  0  0  0  0  0
   -3.2270   15.2480   -2.8720 C   0  0  0  0  0  0  0  0  0  0  0  0
   -3.3950   15.7070   -0.4990 C   0  0  0  0  0  0  0  0  0  0  0  0
   -6.2440   14.3500   -0.0670 C   0  0  0  0  0  0  0  0  0  0  0  0
   -1.8640   15.1630   -2.7530 C   0  0  0  0  0  0  0  0  0  0  0  0
   -2.0220   15.6320   -0.3510 C   0  0  0  0  0  0  0  0  0  0  0  0
   -7.5720   14.3600   -0.1810 N   0  0  0  0  0  0  0  0  0  0  0  0
   -5.5330   14.5340    1.0640 N   0  0  0  0  0  0  0  0  0  0  0  0
   -1.0260   14.8930   -3.7940 N   0  0  0  0  0  0  0  0  0  0  0  0
   -1.2750   15.3470   -1.5010 C   0  0  0  0  0  0  0  0  0  0  0  0
   -8.2440   14.5900    0.9410 C   0  0  0  0  0  0  0  0  0  0  0  0
   -6.2640   14.7600    2.1580 C   0  0  0  0  0  0  0  0  0  0  0  0
    0.2000   14.8540   -3.3610 C   0  0  0  0  0  0  0  0  0  0  0  0
    0.4150   15.1540   -1.6800 S   0  0  0  0  0  0  0  0  0  0  0  0
   -7.6340   14.8030    2.1460 C   0  0  0  0  0  0  0  0  0  0  0  0
    1.3630   14.5560   -4.2480 C   0  0  0  0  0  0  0  0  0  0  0  0
   -8.4500   15.0660    3.3140 C   0  0  0  0  0  0  0  0  0  0  0  0
    1.4420   13.0570   -4.5130 C   0  0  0  0  0  0  0  0  0  0  0  0
   -7.8140   15.1800    4.5140 N   0  0  0  0  0  0  0  0  0  0  0  0
   -9.6640   15.1890    3.2030 O   0  0  0  0  0  0  0  0  0  0  0  0
    1.2070   12.2470   -3.2630 C   0  0  0  0  0  0  0  0  0  0  0  0
    0.3200   11.2370   -3.3730 O   0  0  0  0  0  0  0  0  0  0  0  0
    1.7550   12.4530   -2.1990 O   0  0  0  0  0  0  0  0  0  0  0  0
  1  2  1  0
  2  3  1  0
  1  4  1  0
  2  5  1  0
  4  6  2  0
  4  7  1  0
  2  8  1  0
  6  9  1  0
  7 10  2  0
  8 11  2  0
  8 12  1  0
  9 13  1  0
  9 14  2  0
 10 14  1  0
 11 15  1  0
 12 16  2  0
 13 17  2  0
 14 18  1  0
 17 18  1  0
 15 19  2  0
 16 19  1  0
 17 20  1  0
 19 21  1  0
 20 22  1  0
 21 23  1  0
 21 24  2  0
 22 25  1  0
 25 26  1  0
 25 27  2  0
M  END
