mac-x0305-mac-x0433
     RDKit          3D

 18 19  0  0  0  0  0  0  0  0999 V2000
    0.5020   13.2820   -0.1280 O   0  0  0  0  0  0  0  0  0  0  0  0
    0.2770   14.2110   -1.0750 C   0  0  0  0  0  0  0  0  0  0  0  0
    1.1720   14.6780   -1.7510 O   0  0  0  0  0  0  0  0  0  0  0  0
   -1.1400   14.5280   -1.2260 C   0  0  0  0  0  0  0  0  0  0  0  0
   -2.1120   14.4860   -0.2010 C   0  0  0  0  0  0  0  0  0  0  0  0
   -1.3610   14.8480   -2.5210 N   0  0  0  0  0  0  0  0  0  0  0  0
   -1.7660   14.1540    1.0920 O   0  0  0  0  0  0  0  0  0  0  0  0
   -3.4150   14.7840   -0.6820 C   0  0  0  0  0  0  0  0  0  0  0  0
   -2.5820   15.1430   -2.8790 C   0  0  0  0  0  0  0  0  0  0  0  0
   -3.5920   15.1160   -2.0150 C   0  0  0  0  0  0  0  0  0  0  0  0
   -4.7630   14.8330   -0.2270 C   0  0  0  0  0  0  0  0  0  0  0  0
   -5.3320   15.0010   -1.4170 N   0  0  0  0  0  0  0  0  0  0  0  0
   -5.4780   14.7340    0.9220 C   0  0  0  0  0  0  0  0  0  0  0  0
   -6.6090   15.0640   -1.5390 C   0  0  0  0  0  0  0  0  0  0  0  0
   -6.8600   14.8020    0.7100 C   0  0  0  0  0  0  0  0  0  0  0  0
   -7.8080   14.6910    1.8550 C   0  0  0  0  0  0  0  0  0  0  0  0
   -7.0730   15.2110   -2.8210 N   0  0  0  0  0  0  0  0  0  0  0  0
   -7.4310   14.9690   -0.5140 N   0  0  0  0  0  0  0  0  0  0  0  0
  1  2  1  0
  2  3  2  0
  2  4  1  0
  4  5  2  0
  4  6  1  0
  5  7  1  0
  5  8  1  0
  6  9  2  0
  8 10  2  0
  9 10  1  0
  8 11  1  0
 11 12  2  0
 11 13  1  0
 12 14  1  0
 13 15  2  0
 15 16  1  0
 14 17  1  0
 14 18  2  0
 15 18  1  0
M  END
