mac-x0326-mac-x0188
     RDKit          3D

 28 32  0  0  0  0  0  0  0  0999 V2000
   -6.2390   15.8180   -1.2860 Cl  0  0  0  0  0  0  0  0  0  0  0  0
   -4.5110   15.7890   -1.2510 C   0  0  0  0  0  0  0  0  0  0  0  0
   -3.7920   15.7290   -2.4520 C   0  0  0  0  0  0  0  0  0  0  0  0
   -3.8480   15.8270   -0.0250 C   0  0  0  0  0  0  0  0  0  0  0  0
   -2.3910   15.7080   -2.4240 C   0  0  0  0  0  0  0  0  0  0  0  0
   -2.4540   15.7990    0.0220 C   0  0  0  0  0  0  0  0  0  0  0  0
   -1.5510   15.6540   -3.5330 N   0  0  0  0  0  0  0  0  0  0  0  0
   -1.7490   15.7380   -1.1880 C   0  0  0  0  0  0  0  0  0  0  0  0
   -0.2910   15.6170   -3.1470 C   0  0  0  0  0  0  0  0  0  0  0  0
   -0.0600   15.6810   -1.4460 S   0  0  0  0  0  0  0  0  0  0  0  0
    0.8780   15.4650   -4.0950 C   0  0  0  0  0  0  0  0  0  0  0  0
    0.8640   13.9510   -4.0840 C   0  0  2  0  0  0  0  0  0  0  0  0
    1.9670   12.9530   -3.8740 C   0  0  1  0  0  0  0  0  0  0  0  0
   -0.2960   13.1970   -4.6120 C   0  0  2  0  0  0  0  0  0  0  0  0
    3.0370   13.4100   -3.1160 O   0  0  0  0  0  0  0  0  0  0  0  0
    1.3110   12.0060   -3.0140 N   0  0  0  0  0  0  0  0  0  0  0  0
   -1.3490   13.7960   -5.3490 O   0  0  0  0  0  0  0  0  0  0  0  0
   -0.8750   13.1030   -3.2530 C   0  0  2  0  0  0  0  0  0  0  0  0
    0.1550   12.4550   -2.3550 C   0  0  0  0  0  0  0  0  0  0  0  0
   -2.5660   13.0890   -4.8760 N   0  0  0  0  0  0  0  0  0  0  0  0
   -2.2470   12.5880   -3.4990 C   0  0  2  0  0  0  0  0  0  0  0  0
    0.0210   12.3620   -1.1470 O   0  0  0  0  0  0  0  0  0  0  0  0
   -3.2100   13.0550   -2.4220 C   0  0  0  0  0  0  0  0  0  0  0  0
   -4.5600   13.3240   -2.6880 C   0  0  0  0  0  0  0  0  0  0  0  0
   -2.7450   13.2240   -1.1040 C   0  0  0  0  0  0  0  0  0  0  0  0
   -5.4160   13.7390   -1.6700 C   0  0  0  0  0  0  0  0  0  0  0  0
   -3.6020   13.6400   -0.0840 C   0  0  0  0  0  0  0  0  0  0  0  0
   -4.9380   13.8950   -0.3660 C   0  0  0  0  0  0  0  0  0  0  0  0
  1  2  1  0
  2  3  2  0
  2  4  1  0
  3  5  1  0
  4  6  2  0
  5  7  1  0
  5  8  2  0
  6  8  1  0
  7  9  2  0
  8 10  1  0
  9 10  1  0
  9 11  1  0
 12 11  1  6
 12 13  1  0
 12 14  1  0
 13 15  1  1
 13 16  1  0
 14 17  1  6
 14 18  1  0
 16 19  1  0
 18 19  1  1
 17 20  1  0
 18 21  1  0
 20 21  1  0
 19 22  2  0
 21 23  1  1
 23 24  2  0
 23 25  1  0
 24 26  1  0
 25 27  2  0
 26 28  2  0
 27 28  1  0
M  END
