mac-x0139-mac-x0333
     RDKit          3D

 20 22  0  0  0  0  0  0  0  0999 V2000
   -2.0590   14.8290   -3.3650 C   0  0  0  0  0  0  0  0  0  0  0  0
   -0.9580   14.4440   -2.4750 N   0  0  0  0  0  0  0  0  0  0  0  0
    0.3590   14.8720   -2.9680 C   0  0  0  0  0  0  0  0  0  0  0  0
   -1.1970   14.6600   -1.1300 C   0  0  0  0  0  0  0  0  0  0  0  0
    0.9450   13.8470   -3.9200 C   0  0  0  0  0  0  0  0  0  0  0  0
   -2.4380   14.7720   -0.6080 C   0  0  0  0  0  0  0  0  0  0  0  0
   -0.1180   14.7620   -0.3450 N   0  0  0  0  0  0  0  0  0  0  0  0
    1.1240   12.5350   -3.2160 C   0  0  0  0  0  0  0  0  0  0  0  0
   -2.5820   15.0300    0.7330 C   0  0  0  0  0  0  0  0  0  0  0  0
   -0.3480   14.9850    0.9630 C   0  0  0  0  0  0  0  0  0  0  0  0
   -3.7410   14.6670   -1.2680 C   0  0  0  0  0  0  0  0  0  0  0  0
    1.7110   12.4450   -2.1560 O   0  0  0  0  0  0  0  0  0  0  0  0
    0.5820   11.4790   -3.8490 O   0  0  0  0  0  0  0  0  0  0  0  0
   -1.5470   15.1340    1.5630 N   0  0  0  0  0  0  0  0  0  0  0  0
   -3.9480   15.1810    1.0990 N   0  0  0  0  0  0  0  0  0  0  0  0
   -4.7240   14.8580   -0.1090 C   0  0  2  0  0  0  0  0  0  0  0  0
   -5.5340   13.7250    0.1750 O   0  0  0  0  0  0  0  0  0  0  0  0
   -5.7160   15.8240   -0.7330 C   0  0  0  0  0  0  0  0  0  0  0  0
   -7.0340   15.3690   -0.3770 O   0  0  0  0  0  0  0  0  0  0  0  0
   -6.8010   14.2750    0.4910 C   0  0  0  0  0  0  0  0  0  0  0  0
  1  2  1  0
  2  3  1  0
  2  4  1  0
  3  5  1  0
  4  6  2  0
  4  7  1  0
  5  8  1  0
  6  9  1  0
  7 10  2  0
  6 11  1  0
  8 12  2  0
  8 13  1  0
  9 14  2  0
 10 14  1  0
  9 15  1  0
 16 11  1  6
 15 16  1  0
 16 17  1  0
 16 18  1  0
 18 19  1  0
 17 20  1  0
 19 20  1  0
M  END
