mac-x0375-mac-x0402
     RDKit          3D

 24 26  0  0  0  0  0  0  0  0999 V2000
    1.4380   12.8760   -2.6040 O   0  0  0  0  0  0  0  0  0  0  0  0
    0.8890   12.0770   -3.5410 C   0  0  0  0  0  0  0  0  0  0  0  0
    0.5620   10.9410   -3.2410 O   0  0  0  0  0  0  0  0  0  0  0  0
    0.7450   12.7130   -4.9240 C   0  0  1  0  0  0  0  0  0  0  0  0
    0.7000   11.6630   -5.8990 O   0  0  0  0  0  0  0  0  0  0  0  0
   -0.5110   13.6070   -5.0180 C   0  0  0  0  0  0  0  0  0  0  0  0
   -1.4520   13.5220   -3.7970 C   0  0  0  0  0  0  0  0  0  0  0  0
   -0.3740   10.8240   -6.0430 C   0  0  0  0  0  0  0  0  0  0  0  0
   -1.7990   14.9040   -3.2300 C   0  0  0  0  0  0  0  0  0  0  0  0
   -0.4100    9.6990   -6.8670 C   0  0  0  0  0  0  0  0  0  0  0  0
   -1.5140   11.1410   -5.2940 C   0  0  0  0  0  0  0  0  0  0  0  0
   -1.5560    8.9090   -6.9400 C   0  0  0  0  0  0  0  0  0  0  0  0
   -2.6620   10.3550   -5.3680 C   0  0  0  0  0  0  0  0  0  0  0  0
   -2.9820   14.9340   -2.2800 C   0  0  0  0  0  0  0  0  0  0  0  0
   -2.6860    9.2340   -6.1930 C   0  0  0  0  0  0  0  0  0  0  0  0
   -4.2720   15.0770   -2.7850 C   0  0  0  0  0  0  0  0  0  0  0  0
   -2.7810   14.8270   -0.8900 C   0  0  0  0  0  0  0  0  0  0  0  0
   -3.9050   14.8660   -0.0490 C   0  0  0  0  0  0  0  0  0  0  0  0
   -5.3790   15.1110   -1.9350 C   0  0  0  0  0  0  0  0  0  0  0  0
   -5.1920   15.0020   -0.5520 C   0  0  0  0  0  0  0  0  0  0  0  0
   -3.9900   14.7680    1.6600 S   0  0  0  0  0  0  0  0  0  0  0  0
   -5.7020   14.9100    1.5760 C   0  0  0  0  0  0  0  0  0  0  0  0
   -6.1980   15.0190    0.3800 N   0  0  0  0  0  0  0  0  0  0  0  0
   -6.4940   14.9160    2.6600 N   0  0  0  0  0  0  0  0  0  0  0  0
  1  2  1  0
  2  3  2  0
  2  4  1  0
  4  5  1  0
  4  6  1  1
  6  7  1  0
  5  8  1  0
  7  9  1  0
  8 10  2  0
  8 11  1  0
 10 12  1  0
 11 13  2  0
  9 14  1  0
 12 15  2  0
 13 15  1  0
 14 16  2  0
 14 17  1  0
 17 18  2  0
 16 19  1  0
 18 20  1  0
 19 20  2  0
 18 21  1  0
 21 22  1  0
 20 23  1  0
 22 23  2  0
 22 24  1  0
M  END
