mac-x0576-diamond-x0574_0_A
     RDKit          3D

 14 15  0  0  0  0  0  0  0  0999 V2000
    0.2050   14.2410    1.5280 N   0  0  0  0  0  0  0  0  0  0  0  0
   -0.7970   14.9780    0.8760 C   0  0  2  0  0  0  0  0  0  0  0  0
   -2.0010   14.4460    1.3760 N   0  0  0  0  0  0  0  0  0  0  0  0
   -0.6800   14.6350   -0.4680 N   0  0  0  0  0  0  0  0  0  0  0  0
   -1.6770   14.9850   -1.3250 C   0  0  0  0  0  0  0  0  0  0  0  0
   -3.1410   15.1620    0.8270 C   0  0  1  0  0  0  0  0  0  0  0  0
   -1.4870   14.9530   -2.5350 O   0  0  0  0  0  0  0  0  0  0  0  0
   -3.0140   15.4170   -0.7210 C   0  0  2  0  0  0  0  0  0  0  0  0
   -4.4390   14.5640    1.1320 N   0  0  0  0  0  0  0  0  0  0  0  0
   -5.5870   14.8850    0.4240 C   0  0  0  0  0  0  0  0  0  0  0  0
   -4.1200   14.8890   -1.5560 N   0  0  0  0  0  0  0  0  0  0  0  0
   -6.7520   14.7730    0.9860 N   0  0  0  0  0  0  0  0  0  0  0  0
   -5.3980   15.3640   -1.0220 C   0  0  0  0  0  0  0  0  0  0  0  0
   -6.9290   14.3410    2.3520 C   0  0  0  0  0  0  0  0  0  0  0  0
  2  1  1  1
  2  3  1  0
  2  4  1  0
  4  5  1  0
  6  3  1  6
  5  7  2  0
  5  8  1  0
  6  8  1  0
  6  9  1  0
  9 10  1  0
  8 11  1  6
 10 12  2  3
 10 13  1  0
 11 13  1  0
 12 14  1  0
M  END
