mac-x0546-mac-x0555
     RDKit          3D

 28 31  0  0  0  0  0  0  0  0999 V2000
   -4.0570   14.9150   -6.9430 C   0  0  0  0  0  0  0  0  0  0  0  0
   -3.7430   15.7010   -5.7650 N   0  0  0  0  0  0  0  0  0  0  0  0
   -4.3220   14.9610   -4.6440 C   0  0  0  0  0  0  0  0  0  0  0  0
   -2.4400   15.9280   -5.3440 C   0  0  0  0  0  0  0  0  0  0  0  0
   -1.7900   14.8540   -4.9070 C   0  0  0  0  0  0  0  0  0  0  0  0
   -1.7750   17.2540   -5.2700 C   0  0  0  0  0  0  0  0  0  0  0  0
   -3.5010   15.3930   -3.4280 C   0  0  0  0  0  0  0  0  0  0  0  0
   -0.4750   14.9540   -4.3120 C   0  0  2  0  0  0  0  0  0  0  0  0
   -0.4540   17.4200   -4.9820 C   0  0  0  0  0  0  0  0  0  0  0  0
   -4.0950   15.2050   -2.0970 C   0  0  0  0  0  0  0  0  0  0  0  0
    0.2860   16.1620   -4.7610 C   0  0  0  0  0  0  0  0  0  0  0  0
    0.5970   13.9550   -4.4600 C   0  0  0  0  0  0  0  0  0  0  0  0
   -5.4690   15.0500   -1.9390 C   0  0  0  0  0  0  0  0  0  0  0  0
   -3.2600   15.1780   -0.9970 C   0  0  0  0  0  0  0  0  0  0  0  0
    0.4240   12.4940   -4.3180 C   0  0  0  0  0  0  0  0  0  0  0  0
    1.5490   15.9630   -4.8960 N   0  0  0  0  0  0  0  0  0  0  0  0
    1.7100   14.6040   -4.7120 C   0  0  0  0  0  0  0  0  0  0  0  0
   -6.0210   14.8590   -0.6930 C   0  0  0  0  0  0  0  0  0  0  0  0
   -3.7800   14.9950    0.2630 C   0  0  0  0  0  0  0  0  0  0  0  0
    0.5220   12.0400   -2.8970 C   0  0  0  0  0  0  0  0  0  0  0  0
   -5.1570   14.8300    0.4210 C   0  0  0  0  0  0  0  0  0  0  0  0
   -7.3470   14.7040   -0.5800 N   0  0  0  0  0  0  0  0  0  0  0  0
    0.9650   12.6750   -1.9530 O   0  0  0  0  0  0  0  0  0  0  0  0
    0.0490   10.7950   -2.7370 O   0  0  0  0  0  0  0  0  0  0  0  0
   -5.7090   14.6300    1.6850 C   0  0  0  0  0  0  0  0  0  0  0  0
   -7.8410   14.5120    0.6620 C   0  0  0  0  0  0  0  0  0  0  0  0
   -7.0790   14.4640    1.8250 C   0  0  0  0  0  0  0  0  0  0  0  0
   -7.6460   14.2610    3.0840 N   0  0  0  0  0  0  0  0  0  0  0  0
  1  2  1  0
  2  3  1  0
  2  4  1  0
  4  5  2  0
  4  6  1  0
  3  7  1  0
  8  5  1  6
  6  9  2  0
  7 10  1  0
  8 11  1  0
  9 11  1  0
  8 12  1  0
 10 13  2  0
 10 14  1  0
 12 15  1  0
 11 16  2  0
 12 17  2  0
 16 17  1  0
 13 18  1  0
 14 19  2  0
 15 20  1  0
 18 21  2  0
 19 21  1  0
 18 22  1  0
 20 23  2  0
 20 24  1  0
 21 25  1  0
 22 26  2  0
 25 27  2  0
 26 27  1  0
 27 28  1  0
M  END
