mac-x0301-mac-x0255
     RDKit          3D

 24 27  0  0  0  0  0  0  0  0999 V2000
   -1.0830   12.4930   -2.6120 O   0  0  0  0  0  0  0  0  0  0  0  0
   -1.8270   13.6350   -2.9450 C   0  0  1  0  0  0  0  0  0  0  0  0
   -2.3280   14.3380   -1.7160 C   0  0  0  0  0  0  0  0  0  0  0  0
   -0.7010   14.6560   -3.8570 S   0  0  0  0  0  0  0  0  0  0  0  0
   -1.6510   14.3510   -0.4890 C   0  0  0  0  0  0  0  0  0  0  0  0
   -3.5510   15.0210   -1.7630 C   0  0  0  0  0  0  0  0  0  0  0  0
    1.0290   14.4930   -3.8790 C   0  0  0  0  0  0  0  0  0  0  0  0
   -0.9500   16.0100   -4.8980 C   0  0  0  0  0  0  0  0  0  0  0  0
   -2.1640   14.9830    0.6250 C   0  0  0  0  0  0  0  0  0  0  0  0
   -4.0670   15.6660   -0.6310 C   0  0  0  0  0  0  0  0  0  0  0  0
   -0.4480   13.7690   -0.2130 O   0  0  0  0  0  0  0  0  0  0  0  0
    1.8450   13.4350   -3.1950 C   0  0  0  0  0  0  0  0  0  0  0  0
    1.4390   15.5090   -4.6290 C   0  0  0  0  0  0  0  0  0  0  0  0
    0.4250   16.4340   -5.3070 C   0  0  2  0  0  0  0  0  0  0  0  0
   -2.1590   16.6780   -5.3530 C   0  0  0  0  0  0  0  0  0  0  0  0
   -3.3730   15.6460    0.5820 C   0  0  0  0  0  0  0  0  0  0  0  0
   -1.3480   14.8590    1.7130 O   0  0  0  0  0  0  0  0  0  0  0  0
   -0.1620   14.3600    1.0780 C   0  0  0  0  0  0  0  0  0  0  0  0
    1.0420   12.3350   -2.5140 C   0  0  0  0  0  0  0  0  0  0  0  0
    0.4840   17.9140   -5.2990 C   0  0  0  0  0  0  0  0  0  0  0  0
   -1.9500   17.9630   -5.6500 C   0  0  0  0  0  0  0  0  0  0  0  0
    0.6780   12.5950   -1.2430 O   0  0  0  0  0  0  0  0  0  0  0  0
    0.7210   11.2840   -3.0570 O   0  0  0  0  0  0  0  0  0  0  0  0
   -0.6620   18.6020   -5.4870 C   0  0  0  0  0  0  0  0  0  0  0  0
  2  1  1  1
  2  3  1  0
  2  4  1  0
  3  5  1  0
  3  6  2  0
  4  7  1  0
  4  8  2  0
  5  9  2  0
  6 10  1  0
  5 11  1  0
  7 12  1  0
  7 13  2  0
  8 14  1  0
 14 13  1  1
  8 15  1  0
  9 16  1  0
 10 16  2  0
  9 17  1  0
 11 18  1  0
 17 18  1  0
 12 19  1  0
 14 20  1  0
 15 21  2  0
 19 22  1  0
 19 23  2  0
 20 24  2  0
 21 24  1  0
M  END
