mac-x0178-diamond-x0967_0_A
     RDKit          3D

 26 28  0  0  0  0  0  0  0  0999 V2000
   -0.8890   18.7080   -5.0190 N   0  0  0  0  0  0  0  0  0  0  0  0
   -1.4460   17.3110   -5.6950 S   0  0  2  0  0  0  0  0  0  0  0  0
   -1.2230   17.6020   -7.0710 O   0  0  0  0  0  0  0  0  0  0  0  0
   -2.7620   17.1440   -5.0780 N   0  0  0  0  0  0  0  0  0  0  0  0
   -0.6980   15.9470   -4.8790 C   0  0  0  0  0  0  0  0  0  0  0  0
   -3.4670   15.8790   -5.4050 C   0  0  0  0  0  0  0  0  0  0  0  0
    0.4060   16.1410   -4.0590 C   0  0  0  0  0  0  0  0  0  0  0  0
   -1.2640   14.6730   -5.0440 C   0  0  0  0  0  0  0  0  0  0  0  0
   -3.7420   15.0200   -4.1660 C   0  0  0  0  0  0  0  0  0  0  0  0
    0.9400   15.0440   -3.3810 C   0  0  0  0  0  0  0  0  0  0  0  0
   -0.7320   13.5860   -4.3690 C   0  0  0  0  0  0  0  0  0  0  0  0
   -2.9240   15.4020   -2.9200 C   0  0  0  0  0  0  0  0  0  0  0  0
    0.3660   13.7710   -3.5290 C   0  0  0  0  0  0  0  0  0  0  0  0
    0.8990   12.6020   -2.8040 C   0  0  0  0  0  0  0  0  0  0  0  0
   -3.6800   15.2490   -1.6250 C   0  0  0  0  0  0  0  0  0  0  0  0
    1.8520   12.6340   -2.0650 O   0  0  0  0  0  0  0  0  0  0  0  0
    0.2120   11.4680   -3.0160 O   0  0  0  0  0  0  0  0  0  0  0  0
   -5.0090   14.9920   -1.7090 N   0  0  0  0  0  0  0  0  0  0  0  0
   -3.0170   15.3700   -0.4100 C   0  0  0  0  0  0  0  0  0  0  0  0
   -5.7280   14.8450   -0.5990 C   0  0  0  0  0  0  0  0  0  0  0  0
   -3.7550   15.2170    0.7560 C   0  0  0  0  0  0  0  0  0  0  0  0
   -7.0350   14.5940   -0.7200 N   0  0  0  0  0  0  0  0  0  0  0  0
   -5.1260   14.9510    0.6660 C   0  0  0  0  0  0  0  0  0  0  0  0
   -5.9170   14.7890    1.8060 C   0  0  0  0  0  0  0  0  0  0  0  0
   -7.7800   14.4390    0.3950 C   0  0  0  0  0  0  0  0  0  0  0  0
   -7.2690   14.5270    1.6750 C   0  0  0  0  0  0  0  0  0  0  0  0
  2  1  1  1
  2  3  2  0
  2  4  2  0
  2  5  1  0
  4  6  1  0
  5  7  2  0
  5  8  1  0
  6  9  1  0
  7 10  1  0
  8 11  2  0
  9 12  1  0
 10 13  2  0
 11 13  1  0
 13 14  1  0
 12 15  1  0
 14 16  2  0
 14 17  1  0
 15 18  2  0
 15 19  1  0
 18 20  1  0
 19 21  2  0
 20 22  2  0
 20 23  1  0
 21 23  1  0
 23 24  2  0
 22 25  1  0
 24 26  1  0
 25 26  2  0
M  END
