mac-x0159-diamond-x0969_0_A
     RDKit          3D

 25 29  0  0  0  0  0  0  0  0999 V2000
   -3.5120   16.3610    0.6450 N   0  0  0  0  0  0  0  0  0  0  0  0
   -3.3890   15.0600    0.0230 C   0  0  2  0  0  0  0  0  0  0  0  0
   -1.9570   14.5370    0.1840 C   0  0  1  0  0  0  0  0  0  0  0  0
   -3.7960   15.0310   -1.4000 N   0  0  0  0  0  0  0  0  0  0  0  0
   -4.3660   14.2030    0.8920 C   0  0  0  0  0  0  0  0  0  0  0  0
   -2.8440   15.3220   -2.4760 C   0  0  0  0  0  0  0  0  0  0  0  0
   -1.0810   15.0000   -0.9400 C   0  0  2  0  0  0  0  0  0  0  0  0
   -1.2340   15.1300    1.2980 N   0  0  0  0  0  0  0  0  0  0  0  0
   -5.7390   14.6050    0.6650 N   0  0  0  0  0  0  0  0  0  0  0  0
   -5.1790   15.4230   -1.6240 C   0  0  0  0  0  0  0  0  0  0  0  0
   -1.5840   14.6440   -2.2370 N   0  0  0  0  0  0  0  0  0  0  0  0
    0.1800   14.4430   -0.5050 N   0  0  0  0  0  0  0  0  0  0  0  0
    0.1090   14.7200    0.9430 C   0  0  0  0  0  0  0  0  0  0  0  0
   -6.8610   14.1850    1.4060 C   0  0  1  0  0  0  0  0  0  0  0  0
   -6.1010   14.5700   -0.7240 C   0  0  2  0  0  0  0  0  0  0  0  0
   -0.5750   14.6070   -3.3290 C   0  0  0  0  0  0  0  0  0  0  0  0
   -7.0350   14.8390    2.6660 N   0  0  0  0  0  0  0  0  0  0  0  0
   -8.0040   14.5920    0.6020 N   0  0  0  0  0  0  0  0  0  0  0  0
   -7.4880   15.0080   -0.7230 N   0  0  0  0  0  0  0  0  0  0  0  0
   -0.2970   15.8960   -4.0700 C   0  0  0  0  0  0  0  0  0  0  0  0
    0.9480   16.4870   -4.1750 C   0  0  0  0  0  0  0  0  0  0  0  0
   -1.3080   16.5930   -4.7330 N   0  0  0  0  0  0  0  0  0  0  0  0
   -0.8160   17.6710   -5.3110 C   0  0  0  0  0  0  0  0  0  0  0  0
    0.8630   17.9210   -5.1010 S   0  0  0  0  0  0  0  0  0  0  0  0
   -1.6000   18.6500   -6.1080 C   0  0  0  0  0  0  0  0  0  0  0  0
  2  1  1  1
  2  3  1  0
  2  4  1  0
  2  5  1  0
  4  6  1  0
  3  7  1  0
  3  8  1  1
  5  9  1  0
  4 10  1  0
  6 11  1  0
  7 11  1  0
  7 12  1  1
  8 13  1  0
 12 13  1  0
  9 14  1  0
  9 15  1  0
 15 10  1  6
 11 16  1  0
 14 17  1  1
 14 18  1  0
 15 19  1  0
 18 19  1  0
 16 20  1  0
 20 21  2  0
 20 22  1  0
 22 23  2  0
 21 24  1  0
 23 24  1  0
 23 25  1  0
M  END
