mac-x0226-diamond-x0159_0_B
     RDKit          3D

 32 36  0  0  0  0  0  0  0  0999 V2000
    0.8250   12.8450   -1.9310 O   0  0  0  0  0  0  0  0  0  0  0  0
    0.5010   11.7380   -2.6390 C   0  0  0  0  0  0  0  0  0  0  0  0
    0.1290   10.6980   -2.0990 O   0  0  0  0  0  0  0  0  0  0  0  0
    0.6250   11.8280   -4.0770 C   0  0  0  0  0  0  0  0  0  0  0  0
    1.4470   12.6930   -4.8350 C   0  0  0  0  0  0  0  0  0  0  0  0
   -0.0280   11.0800   -5.0250 C   0  0  0  0  0  0  0  0  0  0  0  0
    1.3220   12.4970   -6.1450 N   0  0  0  0  0  0  0  0  0  0  0  0
    0.4110   11.4960   -6.2590 N   0  0  0  0  0  0  0  0  0  0  0  0
    0.0060   10.9740   -7.5040 C   0  0  0  0  0  0  0  0  0  0  0  0
   -1.2760   11.1190   -8.0190 C   0  0  0  0  0  0  0  0  0  0  0  0
    0.9430   10.2740   -8.2300 C   0  0  0  0  0  0  0  0  0  0  0  0
   -1.5880   10.5610   -9.2580 C   0  0  0  0  0  0  0  0  0  0  0  0
    0.6580    9.7020   -9.4680 C   0  0  0  0  0  0  0  0  0  0  0  0
    1.6470    8.9760  -10.1460 N   0  0  0  0  0  0  0  0  0  0  0  0
   -0.6270    9.8580   -9.9800 C   0  0  0  0  0  0  0  0  0  0  0  0
    2.0630    7.8260   -9.3680 C   0  0  0  0  0  0  0  0  0  0  0  0
    2.3250    9.3600  -11.2440 C   0  0  0  0  0  0  0  0  0  0  0  0
    0.9800    6.7570   -9.3640 C   0  0  0  0  0  0  0  0  0  0  0  0
    2.0710   10.5160  -11.9370 N   0  0  0  0  0  0  0  0  0  0  0  0
    3.3160    8.7050  -11.8050 N   0  0  0  0  0  0  0  0  0  0  0  0
    3.7190    9.4510  -12.8680 C   0  0  0  0  0  0  0  0  0  0  0  0
    2.9520   10.6020  -12.9780 C   0  0  0  0  0  0  0  0  0  0  0  0
    1.3950    5.5900   -8.5540 C   0  0  0  0  0  0  0  0  0  0  0  0
    2.3030    4.6760   -9.0860 C   0  0  0  0  0  0  0  0  0  0  0  0
    0.8910    5.4080   -7.2730 C   0  0  0  0  0  0  0  0  0  0  0  0
    3.1440   11.5560  -13.9720 C   0  0  0  0  0  0  0  0  0  0  0  0
    4.7390    9.2080  -13.7860 C   0  0  0  0  0  0  0  0  0  0  0  0
    2.7090    3.5860   -8.3460 C   0  0  0  0  0  0  0  0  0  0  0  0
    1.2990    4.3180   -6.5370 C   0  0  0  0  0  0  0  0  0  0  0  0
    4.1710   11.3020  -14.8840 C   0  0  0  0  0  0  0  0  0  0  0  0
    4.9570   10.1500  -14.7970 C   0  0  0  0  0  0  0  0  0  0  0  0
    2.2120    3.4060   -7.0750 C   0  0  0  0  0  0  0  0  0  0  0  0
  1  2  1  0
  2  3  2  0
  2  4  1  0
  4  5  1  0
  4  6  2  0
  5  7  2  0
  6  8  1  0
  7  8  1  0
  8  9  1  0
  9 10  2  0
  9 11  1  0
 10 12  1  0
 11 13  2  0
 13 14  1  0
 12 15  2  0
 13 15  1  0
 14 16  1  0
 14 17  1  0
 16 18  1  0
 17 19  1  0
 17 20  2  0
 20 21  1  0
 19 22  1  0
 21 22  2  0
 18 23  1  0
 23 24  2  0
 23 25  1  0
 22 26  1  0
 21 27  1  0
 24 28  1  0
 25 29  2  0
 26 30  2  0
 27 31  2  0
 30 31  1  0
 28 32  2  0
 29 32  1  0
M  END
