mac-x0381-mac-x0333
     RDKit          3D

 25 28  0  0  0  0  0  0  0  0999 V2000
   -8.3650   13.4980    4.9150 N   0  0  0  0  0  0  0  0  0  0  0  0
   -8.2700   14.4210    3.8230 C   0  0  0  0  0  0  0  0  0  0  0  0
   -7.3860   15.4120    4.3630 N   0  0  0  0  0  0  0  0  0  0  0  0
   -7.6650   13.6630    2.6230 C   0  0  0  0  0  0  0  0  0  0  0  0
   -9.5970   15.0460    3.4090 C   0  0  0  0  0  0  0  0  0  0  0  0
   -6.2600   14.0850    2.1930 C   0  0  0  0  0  0  0  0  0  0  0  0
   -9.6720   15.8500    2.2580 C   0  0  0  0  0  0  0  0  0  0  0  0
  -10.7710   14.8460    4.1480 C   0  0  0  0  0  0  0  0  0  0  0  0
  -10.8780   16.4400    1.8390 C   0  0  0  0  0  0  0  0  0  0  0  0
  -11.9770   15.4240    3.7480 C   0  0  0  0  0  0  0  0  0  0  0  0
   -6.3090   14.8760    0.9830 N   0  0  0  0  0  0  0  0  0  0  0  0
  -12.0450   16.2190    2.5970 C   0  0  0  0  0  0  0  0  0  0  0  0
  -10.9450   17.2410    0.6830 C   0  0  0  0  0  0  0  0  0  0  0  0
   -5.1810   14.9340    0.1690 C   0  0  0  0  0  0  0  0  0  0  0  0
   -7.3560   14.5860    0.0000 C   0  0  0  0  0  0  0  0  0  0  0  0
  -13.2530   16.7960    2.1840 C   0  0  0  0  0  0  0  0  0  0  0  0
  -12.1540   17.8070    0.2900 C   0  0  0  0  0  0  0  0  0  0  0  0
   -5.5600   15.0020   -1.1610 C   0  0  0  0  0  0  0  0  0  0  0  0
   -3.8410   14.9300    0.5160 C   0  0  0  0  0  0  0  0  0  0  0  0
   -6.9180   14.9900   -1.3070 O   0  0  0  0  0  0  0  0  0  0  0  0
  -13.3110   17.5860    1.0390 C   0  0  0  0  0  0  0  0  0  0  0  0
   -4.6630   15.0680   -2.1940 C   0  0  0  0  0  0  0  0  0  0  0  0
   -2.9010   14.9910   -0.5220 C   0  0  0  0  0  0  0  0  0  0  0  0
   -3.3210   15.0610   -1.8570 C   0  0  0  0  0  0  0  0  0  0  0  0
   -2.3620   15.1210   -2.8250 O   0  0  0  0  0  0  0  0  0  0  0  0
  2  1  1  0
  2  3  1  0
  2  4  1  0
  2  5  1  0
  4  6  1  0
  5  7  2  0
  5  8  1  0
  7  9  1  0
  8 10  2  0
  6 11  1  0
  9 12  2  0
 10 12  1  0
  9 13  1  0
 11 14  1  0
 11 15  1  0
 12 16  1  0
 13 17  2  0
 14 18  2  0
 14 19  1  0
 15 20  1  0
 18 20  1  0
 16 21  2  0
 17 21  1  0
 18 22  1  0
 19 23  2  0
 22 24  2  0
 23 24  1  0
 24 25  1  0
M  END
