mac-x0365-diamond-x1018_0_A
     RDKit          3D

 16 18  0  0  0  0  0  0  0  0999 V2000
   -0.6080   14.9610   -1.4770 O   0  0  0  0  0  0  0  0  0  0  0  0
   -1.6320   14.8790   -2.3530 C   0  0  0  0  0  0  0  0  0  0  0  0
   -1.4720   15.0020   -3.5570 O   0  0  0  0  0  0  0  0  0  0  0  0
   -2.9710   14.6080   -1.6990 C   0  0  2  0  0  0  0  0  0  0  0  0
   -4.1030   15.0230   -2.6320 C   0  0  0  0  0  0  0  0  0  0  0  0
   -3.0810   15.3120   -0.3370 C   0  0  0  0  0  0  0  0  0  0  0  0
   -5.4810   14.6410   -2.1050 C   0  0  2  0  0  0  0  0  0  0  0  0
   -4.5230   15.3590    0.1720 C   0  0  1  0  0  0  0  0  0  0  0  0
   -6.4110   15.5250   -2.5190 F   0  0  0  0  0  0  0  0  0  0  0  0
   -5.5560   14.4820   -0.5880 C   0  0  2  0  0  0  0  0  0  0  0  0
   -4.7740   14.8570    1.5430 C   0  0  0  0  0  0  0  0  0  0  0  0
   -5.2810   13.1150    0.0190 C   0  0  1  0  0  0  0  0  0  0  0  0
   -5.1990   13.5840    1.4540 C   0  0  0  0  0  0  0  0  0  0  0  0
   -7.0300   14.6170   -0.1310 C   0  0  0  0  0  0  0  0  0  0  0  0
   -7.6500   13.2860   -0.3000 N   0  0  0  0  0  0  0  0  0  0  0  0
   -6.5390   12.3080   -0.2880 C   0  0  0  0  0  0  0  0  0  0  0  0
  1  2  1  0
  2  3  2  0
  4  2  1  6
  4  5  1  0
  4  6  1  0
  5  7  1  0
  8  6  1  6
  7  9  1  1
  7 10  1  0
  8 10  1  0
  8 11  1  0
 10 12  1  0
 11 13  2  0
 12 13  1  1
 10 14  1  1
 14 15  1  0
 12 16  1  0
 15 16  1  0
M  END
