mac-x0193-diamond-x0662_0_A
     RDKit          3D

 30 32  0  0  0  0  0  0  0  0999 V2000
   -0.2560   11.3130   -3.8710 O   0  0  0  0  0  0  0  0  0  0  0  0
    0.0600   12.5110   -4.4230 C   0  0  0  0  0  0  0  0  0  0  0  0
    0.5930   13.3710   -3.7360 O   0  0  0  0  0  0  0  0  0  0  0  0
   -0.2920   12.6720   -5.8910 C   0  0  0  0  0  0  0  0  0  0  0  0
   -0.2030   11.3820   -6.6550 N   0  0  1  0  0  0  0  0  0  0  0  0
    1.2160   11.0800   -6.9690 C   0  0  0  0  0  0  0  0  0  0  0  0
   -0.6870   10.3450   -5.8400 O   0  0  0  0  0  0  0  0  0  0  0  0
   -0.7850   11.2720   -8.0520 C   0  0  0  0  0  0  0  0  0  0  0  0
    2.0790   11.8570   -6.5540 O   0  0  0  0  0  0  0  0  0  0  0  0
    1.4610    9.9260   -7.7170 N   0  0  0  0  0  0  0  0  0  0  0  0
   -2.1400   11.1280   -8.3440 C   0  0  0  0  0  0  0  0  0  0  0  0
    0.1280   11.2990   -9.1320 C   0  0  0  0  0  0  0  0  0  0  0  0
    0.4920    8.9050   -8.0920 C   0  0  0  0  0  0  0  0  0  0  0  0
   -2.5470   11.0150   -9.6780 C   0  0  0  0  0  0  0  0  0  0  0  0
   -0.2600   11.1850  -10.4670 C   0  0  0  0  0  0  0  0  0  0  0  0
    0.7680   11.2190  -11.4440 N   0  0  0  0  0  0  0  0  0  0  0  0
    1.1100    7.5130   -8.0080 C   0  0  0  0  0  0  0  0  0  0  0  0
   -0.0440    9.1180   -9.5050 C   0  0  0  0  0  0  0  0  0  0  0  0
   -1.6180   11.0420  -10.7320 C   0  0  0  0  0  0  0  0  0  0  0  0
    1.7700   10.2700  -11.6540 C   0  0  0  0  0  0  0  0  0  0  0  0
    2.0960    7.2450   -9.1430 C   0  0  0  0  0  0  0  0  0  0  0  0
    0.0190    7.8870  -10.4270 C   0  0  0  0  0  0  0  0  0  0  0  0
    1.9710    9.2490  -11.0140 O   0  0  0  0  0  0  0  0  0  0  0  0
    1.3530    7.1270  -10.4610 C   0  0  0  0  0  0  0  0  0  0  0  0
    2.6500   10.6060  -12.7870 C   0  0  0  0  0  0  0  0  0  0  0  0
    2.6940   11.8100  -13.5180 C   0  0  0  0  0  0  0  0  0  0  0  0
    3.5620    9.7150  -13.2420 N   0  0  0  0  0  0  0  0  0  0  0  0
    4.1690   10.3670  -14.2490 N   0  0  0  0  0  0  0  0  0  0  0  0
    3.6830   11.6260  -14.4550 C   0  0  0  0  0  0  0  0  0  0  0  0
    5.2260    9.7120  -14.9800 C   0  0  0  0  0  0  0  0  0  0  0  0
  1  2  1  0
  2  3  2  0
  2  4  1  0
  4  5  1  0
  5  6  1  0
  5  7  1  1
  5  8  1  0
  6  9  2  0
  6 10  1  0
  8 11  2  0
  8 12  1  0
 10 13  1  0
 11 14  1  0
 12 15  2  0
 15 16  1  0
 13 17  1  0
 13 18  1  0
 14 19  2  0
 15 19  1  0
 16 20  1  0
 17 21  1  0
 18 22  1  0
 20 23  2  0
 21 24  1  0
 22 24  1  0
 20 25  1  0
 25 26  1  0
 25 27  2  0
 27 28  1  0
 26 29  2  0
 28 29  1  0
 28 30  1  0
M  CHG  2   5   1   7  -1
M  END
