mac-x0328-mac-x0255
     RDKit          3D

 24 26  0  0  0  0  0  0  0  0999 V2000
   -2.1470   15.6390   -3.6700 O   0  0  0  0  0  0  0  0  0  0  0  0
   -2.0410   14.9210   -2.5550 C   0  0  0  0  0  0  0  0  0  0  0  0
   -0.9180   14.3640   -2.2660 N   0  0  0  0  0  0  0  0  0  0  0  0
   -3.3390   14.9400   -1.8670 C   0  0  0  0  0  0  0  0  0  0  0  0
   -0.6610   13.5380   -1.1100 C   0  0  0  0  0  0  0  0  0  0  0  0
   -3.4670   14.8090   -0.4790 C   0  0  0  0  0  0  0  0  0  0  0  0
   -4.4740   15.1120   -2.6650 C   0  0  0  0  0  0  0  0  0  0  0  0
    0.4660   12.6660   -1.3360 O   0  0  0  0  0  0  0  0  0  0  0  0
   -4.7430   14.8530    0.0990 C   0  0  0  0  0  0  0  0  0  0  0  0
   -5.7350   15.1570   -2.0920 C   0  0  0  0  0  0  0  0  0  0  0  0
    0.5430   12.0970   -2.5990 C   0  0  0  0  0  0  0  0  0  0  0  0
   -5.8640   15.0280   -0.7180 C   0  0  0  0  0  0  0  0  0  0  0  0
   -7.1290   15.0800   -0.2140 O   0  0  0  0  0  0  0  0  0  0  0  0
    0.0130   11.0300   -2.8730 O   0  0  0  0  0  0  0  0  0  0  0  0
    1.3710   12.8820   -3.6300 C   0  0  0  0  0  0  0  0  0  0  0  0
    0.6710   14.1070   -4.1680 C   0  0  0  0  0  0  0  0  0  0  0  0
    1.1900   15.3800   -4.3030 C   0  0  0  0  0  0  0  0  0  0  0  0
   -0.9510   14.0560   -4.7060 S   0  0  0  0  0  0  0  0  0  0  0  0
    0.2540   16.3360   -4.8290 C   0  0  0  0  0  0  0  0  0  0  0  0
   -0.9820   15.7440   -5.0900 C   0  0  0  0  0  0  0  0  0  0  0  0
    0.4050   17.7180   -5.0990 C   0  0  0  0  0  0  0  0  0  0  0  0
   -2.0710   16.4980   -5.6020 C   0  0  0  0  0  0  0  0  0  0  0  0
   -0.6670   18.4580   -5.6090 C   0  0  0  0  0  0  0  0  0  0  0  0
   -1.8890   17.8560   -5.8540 C   0  0  0  0  0  0  0  0  0  0  0  0
  1  2  1  0
  2  3  2  3
  2  4  1  0
  3  5  1  0
  4  6  2  0
  4  7  1  0
  5  8  1  0
  6  9  1  0
  7 10  2  0
  8 11  1  0
  9 12  2  0
 10 12  1  0
 12 13  1  0
 11 14  2  0
 11 15  1  0
 15 16  1  0
 16 17  2  0
 16 18  1  0
 17 19  1  0
 18 20  1  0
 19 20  2  0
 19 21  1  0
 20 22  1  0
 21 23  2  0
 22 24  2  0
 23 24  1  0
M  END
