mac-x0564-mac-x0231
     RDKit          3D

 22 26  0  0  0  0  0  0  0  0999 V2000
    0.5090   13.0810   -1.6460 N   0  0  0  0  0  0  0  0  0  0  0  0
    1.0620   12.1710   -2.6670 C   0  0  1  0  0  0  0  0  0  0  0  0
    0.5480   10.8480   -2.4910 O   0  0  0  0  0  0  0  0  0  0  0  0
   -0.0190   14.3970   -2.0530 C   0  0  2  0  0  0  0  0  0  0  0  0
    0.9620   12.5620   -4.1470 C   0  0  0  0  0  0  0  0  0  0  0  0
   -1.4430   14.6310   -1.8060 C   0  0  0  0  0  0  0  0  0  0  0  0
   -0.1250   14.7340   -3.6210 C   0  0  2  0  0  0  0  0  0  0  0  0
   -2.2440   14.5450   -2.8970 C   0  0  0  0  0  0  0  0  0  0  0  0
   -1.5150   14.2270   -3.9960 N   0  0  0  0  0  0  0  0  0  0  0  0
   -2.0940   14.9270   -0.6790 O   0  0  0  0  0  0  0  0  0  0  0  0
    1.1040   14.0630   -4.2280 C   0  0  2  0  0  0  0  0  0  0  0  0
   -0.1990   16.2230   -3.8820 C   0  0  0  0  0  0  0  0  0  0  0  0
   -3.4050   15.0540   -1.0870 C   0  0  0  0  0  0  0  0  0  0  0  0
   -3.5420   14.8270   -2.4710 C   0  0  0  0  0  0  0  0  0  0  0  0
    0.5430   16.7640   -5.0260 C   0  0  0  0  0  0  0  0  0  0  0  0
    1.3300   14.5980   -5.5380 N   0  0  0  0  0  0  0  0  0  0  0  0
    0.2610   17.8360   -5.5490 O   0  0  0  0  0  0  0  0  0  0  0  0
   -4.8120   14.9230   -3.0470 C   0  0  0  0  0  0  0  0  0  0  0  0
   -4.4700   15.3700   -0.2520 C   0  0  0  0  0  0  0  0  0  0  0  0
    1.5290   15.9880   -5.4400 N   0  0  0  0  0  0  0  0  0  0  0  0
   -5.8960   15.2400   -2.2220 C   0  0  0  0  0  0  0  0  0  0  0  0
   -5.7260   15.4570   -0.8570 C   0  0  0  0  0  0  0  0  0  0  0  0
  1  2  1  0
  2  3  1  6
  4  1  1  6
  2  5  1  0
  4  6  1  0
  4  7  1  0
  6  8  2  0
  7  9  1  0
  8  9  1  0
  6 10  1  0
 11  5  1  6
  7 11  1  0
  7 12  1  1
 10 13  1  0
  8 14  1  0
 13 14  2  0
 12 15  1  0
 11 16  1  0
 15 17  2  0
 14 18  1  0
 13 19  1  0
 15 20  1  0
 16 20  1  0
 18 21  2  0
 19 22  2  0
 21 22  1  0
M  END
