mac-x0397-diamond-x0910_1_A
     RDKit          3D

 12 13  0  0  0  0  0  0  0  0999 V2000
   -6.4800   14.3830   -2.2840 Cl  0  0  0  0  0  0  0  0  0  0  0  0
   -5.1630   15.4020   -1.6270 C   0  0  1  0  0  0  0  0  0  0  0  0
   -4.9290   15.4340   -0.0890 C   0  0  1  0  0  0  0  0  0  0  0  0
   -3.9270   15.1840   -2.4470 C   0  0  0  0  0  0  0  0  0  0  0  0
   -6.1000   15.0310    0.7460 N   0  0  0  0  0  0  0  0  0  0  0  0
   -3.6110   14.8510    0.4760 C   0  0  1  0  0  0  0  0  0  0  0  0
   -2.7750   14.7210   -1.9540 C   0  0  0  0  0  0  0  0  0  0  0  0
   -6.9190   13.9240    0.2520 N   0  0  0  0  0  0  0  0  0  0  0  0
   -5.5570   14.7220    2.0490 C   0  0  2  0  0  0  0  0  0  0  0  0
   -4.1640   13.6520    1.7060 S   0  0  0  0  0  0  0  0  0  0  0  0
   -2.5680   14.3520   -0.5210 C   0  0  0  0  0  0  0  0  0  0  0  0
   -6.6260   14.1220    2.7920 N   0  0  0  0  0  0  0  0  0  0  0  0
  2  1  1  1
  2  3  1  0
  2  4  1  0
  3  5  1  1
  3  6  1  0
  4  7  2  0
  5  8  1  0
  5  9  1  0
  6 10  1  0
  9 10  1  0
  6 11  1  6
  7 11  1  0
  9 12  1  1
M  END
