mac-x0305-mac-x0123
     RDKit          3D

 19 21  0  0  0  0  0  0  0  0999 V2000
    0.6220   13.0890   -0.5880 O   0  0  0  0  0  0  0  0  0  0  0  0
   -0.0950   13.9340   -1.3770 C   0  0  0  0  0  0  0  0  0  0  0  0
    0.3260   14.4500   -2.4020 O   0  0  0  0  0  0  0  0  0  0  0  0
   -1.4840   14.1060   -0.7830 C   0  0  1  0  0  0  0  0  0  0  0  0
   -1.6550   15.3240    0.1140 C   0  0  2  0  0  0  0  0  0  0  0  0
   -2.5010   14.0620   -1.8610 N   0  0  0  0  0  0  0  0  0  0  0  0
   -1.5430   14.9180    1.5000 O   0  0  0  0  0  0  0  0  0  0  0  0
   -3.0310   15.9830   -0.1860 C   0  0  0  0  0  0  0  0  0  0  0  0
   -3.7850   13.8510   -1.1770 C   0  0  0  0  0  0  0  0  0  0  0  0
   -4.2730   15.0410   -0.3330 C   0  0  1  0  0  0  0  0  0  0  0  0
   -4.8100   14.7560    1.1150 C   0  0  2  0  0  0  0  0  0  0  0  0
   -5.4580   15.5400   -1.2150 C   0  0  0  0  0  0  0  0  0  0  0  0
   -3.8760   13.8800    1.8180 N   0  0  0  0  0  0  0  0  0  0  0  0
   -6.5850   14.5790   -1.2330 N   0  0  0  0  0  0  0  0  0  0  0  0
   -6.1870   14.0930    1.1570 C   0  0  2  0  0  0  0  0  0  0  0  0
   -7.1640   14.5840    0.1040 C   0  0  2  0  0  0  0  0  0  0  0  0
   -7.0260   14.1350    2.4350 C   0  0  0  0  0  0  0  0  0  0  0  0
   -8.3140   13.6450    0.4110 C   0  0  0  0  0  0  0  0  0  0  0  0
   -8.4420   13.8150    1.9370 C   0  0  0  0  0  0  0  0  0  0  0  0
  1  2  1  0
  2  3  2  0
  4  2  1  6
  4  5  1  0
  4  6  1  0
  5  7  1  1
  5  8  1  0
  6  9  1  0
 10  8  1  1
  9 10  1  0
 10 11  1  0
 10 12  1  0
 11 13  1  6
 12 14  1  0
 11 15  1  0
 14 16  1  0
 15 16  1  0
 15 17  1  1
 16 18  1  6
 17 19  1  0
 18 19  1  0
M  END
