mac-x0179-mac-x0385
     RDKit          3D

 27 29  0  0  0  0  0  0  0  0999 V2000
    2.4670   12.4460   -3.2020 O   0  0  0  0  0  0  0  0  0  0  0  0
    1.0960   12.5740   -3.4600 C   0  0  0  0  0  0  0  0  0  0  0  0
    0.5500   11.3290   -3.0070 O   0  0  0  0  0  0  0  0  0  0  0  0
    0.6930   12.8030   -4.9140 C   0  0  0  0  0  0  0  0  0  0  0  0
    0.5780   13.6980   -2.6080 C   0  0  0  0  0  0  0  0  0  0  0  0
    1.1270   13.6870   -1.2290 C   0  0  0  0  0  0  0  0  0  0  0  0
    0.1460   11.6680   -5.5850 N   0  0  0  0  0  0  0  0  0  0  0  0
    0.8540   14.9290   -0.4650 C   0  0  0  0  0  0  0  0  0  0  0  0
    0.7230   11.2400   -6.7120 C   0  0  0  0  0  0  0  0  0  0  0  0
   -1.1690   11.3430   -5.6050 C   0  0  0  0  0  0  0  0  0  0  0  0
    1.7320   11.6440   -7.1860 O   0  0  0  0  0  0  0  0  0  0  0  0
   -2.1010   11.8410   -5.0340 O   0  0  0  0  0  0  0  0  0  0  0  0
    0.0500   14.6300    0.7680 C   0  0  0  0  0  0  0  0  0  0  0  0
   -0.1020   10.1630   -7.2220 C   0  0  0  0  0  0  0  0  0  0  0  0
   -1.2850   10.2180   -6.5200 C   0  0  0  0  0  0  0  0  0  0  0  0
    0.1420    9.2230   -8.1910 C   0  0  0  0  0  0  0  0  0  0  0  0
   -2.3080    9.3220   -6.7380 C   0  0  0  0  0  0  0  0  0  0  0  0
   -1.3600   14.8810    0.4630 C   0  0  0  0  0  0  0  0  0  0  0  0
   -0.8780    8.3000   -8.4410 C   0  0  0  0  0  0  0  0  0  0  0  0
   -2.0940    8.3480   -7.7170 C   0  0  0  0  0  0  0  0  0  0  0  0
   -2.2150   15.0930    1.4660 N   0  0  0  0  0  0  0  0  0  0  0  0
   -1.6560   14.8690   -0.8480 N   0  0  0  0  0  0  0  0  0  0  0  0
   -3.4800   15.3210    1.0810 C   0  0  0  0  0  0  0  0  0  0  0  0
   -2.9260   15.0870   -1.1740 C   0  0  0  0  0  0  0  0  0  0  0  0
   -4.3760   15.5690    2.1130 N   0  0  0  0  0  0  0  0  0  0  0  0
   -3.8980   15.3250   -0.2450 C   0  0  0  0  0  0  0  0  0  0  0  0
   -5.2990   15.5710   -0.6760 C   0  0  0  0  0  0  0  0  0  0  0  0
  2  1  1  0
  2  3  1  0
  2  4  1  0
  2  5  1  0
  5  6  1  0
  4  7  1  0
  6  8  1  0
  7  9  1  0
  7 10  1  0
  9 11  2  0
 10 12  2  0
  8 13  1  0
  9 14  1  0
 10 15  1  0
 14 15  2  0
 14 16  1  0
 15 17  1  0
 13 18  1  0
 16 19  2  0
 17 20  2  0
 19 20  1  0
 18 21  2  0
 18 22  1  0
 21 23  1  0
 22 24  2  0
 23 25  1  0
 23 26  2  0
 24 26  1  0
 26 27  1  0
M  END
