mac-x0321-mac-x0348
     RDKit          3D

 24 26  0  0  0  0  0  0  0  0999 V2000
   -4.1560   15.5980    1.6280 Cl  0  0  0  0  0  0  0  0  0  0  0  0
   -4.1790   15.3510   -0.0620 C   0  0  0  0  0  0  0  0  0  0  0  0
   -3.0290   14.8990   -0.7030 C   0  0  0  0  0  0  0  0  0  0  0  0
   -5.3460   15.5990   -0.7810 C   0  0  0  0  0  0  0  0  0  0  0  0
   -3.0760   14.6990   -2.0800 C   0  0  0  0  0  0  0  0  0  0  0  0
   -5.3840   15.4050   -2.1480 C   0  0  0  0  0  0  0  0  0  0  0  0
   -1.9000   14.1930   -2.8210 C   0  0  0  0  0  0  0  0  0  0  0  0
   -4.2460   14.9530   -2.8070 C   0  0  0  0  0  0  0  0  0  0  0  0
   -0.6600   14.8210   -2.8950 N   0  0  0  0  0  0  0  0  0  0  0  0
   -2.1180   13.1590   -3.4220 O   0  0  0  0  0  0  0  0  0  0  0  0
    0.4450   13.9870   -3.4520 C   0  0  0  0  0  0  0  0  0  0  0  0
   -0.7760   16.0520   -3.6860 C   0  0  1  0  0  0  0  0  0  0  0  0
    0.7570   12.7390   -2.6380 C   0  0  0  0  0  0  0  0  0  0  0  0
    0.3180   17.1200   -3.7710 C   0  0  0  0  0  0  0  0  0  0  0  0
   -0.9080   15.7140   -5.1400 C   0  0  2  0  0  0  0  0  0  0  0  0
    1.4700   12.6950   -1.6750 O   0  0  0  0  0  0  0  0  0  0  0  0
    0.1650   11.6050   -3.0800 O   0  0  0  0  0  0  0  0  0  0  0  0
   -0.1680   17.9910   -4.8680 N   0  0  0  0  0  0  0  0  0  0  0  0
   -0.9280   17.1240   -5.7650 C   0  0  2  0  0  0  0  0  0  0  0  0
   -2.0880   14.8110   -5.3830 C   0  0  0  0  0  0  0  0  0  0  0  0
    0.9750   18.4920   -5.6200 C   0  0  0  0  0  0  0  0  0  0  0  0
   -3.2200   15.2870   -5.8630 C   0  0  0  0  0  0  0  0  0  0  0  0
   -2.3180   17.5540   -6.1200 C   0  0  0  0  0  0  0  0  0  0  0  0
   -3.3400   16.6690   -6.1590 C   0  0  0  0  0  0  0  0  0  0  0  0
  1  2  1  0
  2  3  2  0
  2  4  1  0
  3  5  1  0
  4  6  2  0
  5  7  1  0
  5  8  2  0
  6  8  1  0
  7  9  1  0
  7 10  2  0
  9 11  1  0
 12  9  1  1
 11 13  1  0
 12 14  1  0
 12 15  1  0
 13 16  2  0
 13 17  1  0
 14 18  1  0
 15 19  1  0
 18 19  1  0
 15 20  1  1
 18 21  1  0
 20 22  2  0
 19 23  1  1
 22 24  1  0
 23 24  2  0
M  END
