mac-x0348-mac-x0223
     RDKit          3D

 17 18  0  0  0  0  0  0  0  0999 V2000
    0.2720   18.5930   -6.3120 C   0  0  0  0  0  0  0  0  0  0  0  0
    1.4160   18.9450   -5.5840 O   0  0  0  0  0  0  0  0  0  0  0  0
   -0.1260   17.3660   -5.7390 N   0  0  0  0  0  0  0  0  0  0  0  0
    0.6340   16.7780   -4.7250 C   0  0  0  0  0  0  0  0  0  0  0  0
   -1.5040   17.1140   -5.3580 C   0  0  2  0  0  0  0  0  0  0  0  0
   -1.8120   18.0840   -4.3990 O   0  0  0  0  0  0  0  0  0  0  0  0
    0.0170   15.7350   -4.1600 C   0  0  0  0  0  0  0  0  0  0  0  0
   -1.2860   15.6330   -4.8730 C   0  0  1  0  0  0  0  0  0  0  0  0
   -2.6370   17.0890   -6.2970 C   0  0  0  0  0  0  0  0  0  0  0  0
    0.5050   14.8380   -3.0770 C   0  0  0  0  0  0  0  0  0  0  0  0
   -2.5040   15.0690   -4.2590 C   0  0  0  0  0  0  0  0  0  0  0  0
   -3.6570   16.2230   -6.0340 C   0  0  0  0  0  0  0  0  0  0  0  0
    0.7140   13.3980   -3.5570 C   0  0  0  0  0  0  0  0  0  0  0  0
   -3.6480   15.3700   -4.8630 C   0  0  0  0  0  0  0  0  0  0  0  0
    0.5720   12.4170   -2.4270 C   0  0  0  0  0  0  0  0  0  0  0  0
    0.5590   12.6660   -1.2360 O   0  0  0  0  0  0  0  0  0  0  0  0
    0.4470   11.1480   -2.8530 O   0  0  0  0  0  0  0  0  0  0  0  0
  1  2  1  0
  1  3  1  0
  3  4  1  0
  3  5  1  0
  5  6  1  1
  4  7  2  0
  5  8  1  0
  7  8  1  0
  5  9  1  0
  7 10  1  0
  8 11  1  1
  9 12  2  0
 10 13  1  0
 11 14  2  0
 12 14  1  0
 13 15  1  0
 15 16  2  0
 15 17  1  0
M  END
