mac-x0348-mac-x0333
     RDKit          3D

 26 29  0  0  0  0  0  0  0  0999 V2000
    1.0760   18.4870   -5.6710 C   0  0  0  0  0  0  0  0  0  0  0  0
    0.3560   17.3300   -5.2290 N   0  0  0  0  0  0  0  0  0  0  0  0
    0.8560   16.3270   -4.4430 C   0  0  0  0  0  0  0  0  0  0  0  0
   -0.9420   17.0720   -5.5390 C   0  0  0  0  0  0  0  0  0  0  0  0
   -0.1600   15.4120   -4.2620 C   0  0  0  0  0  0  0  0  0  0  0  0
   -1.2790   15.8700   -4.9430 C   0  0  0  0  0  0  0  0  0  0  0  0
   -1.8510   17.7730   -6.2850 C   0  0  0  0  0  0  0  0  0  0  0  0
   -0.2470   14.1310   -3.5200 C   0  0  1  0  0  0  0  0  0  0  0  0
   -2.5560   15.3260   -5.0860 C   0  0  0  0  0  0  0  0  0  0  0  0
   -3.0940   17.2160   -6.4090 C   0  0  0  0  0  0  0  0  0  0  0  0
    1.0540   13.3690   -3.3520 C   0  0  0  0  0  0  0  0  0  0  0  0
   -1.0450   14.3800   -2.2170 C   0  0  0  0  0  0  0  0  0  0  0  0
   -3.4740   16.0140   -5.8350 C   0  0  0  0  0  0  0  0  0  0  0  0
    0.7860   12.3260   -2.3240 C   0  0  0  0  0  0  0  0  0  0  0  0
   -2.2530   15.0940   -2.5500 O   0  0  0  0  0  0  0  0  0  0  0  0
    0.6380   12.5500   -1.1440 O   0  0  0  0  0  0  0  0  0  0  0  0
    0.6760   11.0800   -2.8110 O   0  0  0  0  0  0  0  0  0  0  0  0
   -3.3100   15.0530   -1.6760 C   0  0  0  0  0  0  0  0  0  0  0  0
   -4.6690   15.0610   -2.0210 C   0  0  0  0  0  0  0  0  0  0  0  0
   -2.9330   14.9980   -0.3180 C   0  0  0  0  0  0  0  0  0  0  0  0
   -5.5890   15.0090   -0.9900 C   0  0  0  0  0  0  0  0  0  0  0  0
   -3.8830   14.9510    0.7000 C   0  0  0  0  0  0  0  0  0  0  0  0
   -5.2060   14.9570    0.3270 C   0  0  0  0  0  0  0  0  0  0  0  0
   -6.9450   15.0000   -1.1190 O   0  0  0  0  0  0  0  0  0  0  0  0
   -6.2750   14.9090    1.1650 O   0  0  0  0  0  0  0  0  0  0  0  0
   -7.3180   14.6250    0.2200 C   0  0  0  0  0  0  0  0  0  0  0  0
  1  2  1  0
  2  3  1  0
  2  4  1  0
  3  5  2  0
  4  6  2  0
  5  6  1  0
  4  7  1  0
  5  8  1  0
  6  9  1  0
  7 10  2  0
  8 11  1  1
  8 12  1  0
  9 13  2  0
 10 13  1  0
 11 14  1  0
 12 15  1  0
 14 16  2  0
 14 17  1  0
 15 18  1  0
 18 19  2  0
 18 20  1  0
 19 21  1  0
 20 22  2  0
 21 23  2  0
 22 23  1  0
 21 24  1  0
 23 25  1  0
 24 26  1  0
 25 26  1  0
M  END
