mac-x0347-mac-x0263
     RDKit          3D

 24 26  0  0  0  0  0  0  0  0999 V2000
    1.4820   14.5600   -3.5150 O   0  0  0  0  0  0  0  0  0  0  0  0
    0.7010   14.1800   -2.4920 C   0  0  0  0  0  0  0  0  0  0  0  0
    1.1610   13.5770   -1.5460 O   0  0  0  0  0  0  0  0  0  0  0  0
   -0.7100   14.5570   -2.6580 C   0  0  0  0  0  0  0  0  0  0  0  0
   -1.5860   14.4470   -1.5730 C   0  0  0  0  0  0  0  0  0  0  0  0
   -1.2120   15.0240   -3.8700 C   0  0  0  0  0  0  0  0  0  0  0  0
   -2.9220   14.8000   -1.7380 C   0  0  0  0  0  0  0  0  0  0  0  0
   -2.5050   15.3740   -4.0620 N   0  0  0  0  0  0  0  0  0  0  0  0
   -3.3210   15.2520   -2.9970 C   0  0  0  0  0  0  0  0  0  0  0  0
   -3.9520   14.7000   -0.6540 C   0  0  2  0  0  0  0  0  0  0  0  0
   -3.7510   15.2620    0.7620 C   0  0  0  0  0  0  0  0  0  0  0  0
   -4.4930   13.3080   -0.5180 C   0  0  0  0  0  0  0  0  0  0  0  0
   -4.8250   15.1120    1.5850 C   0  0  0  0  0  0  0  0  0  0  0  0
   -5.5230   13.1680    0.2800 C   0  0  0  0  0  0  0  0  0  0  0  0
   -6.0070   14.4240    0.9070 C   0  0  1  0  0  0  0  0  0  0  0  0
   -7.5340   14.2040    1.3240 C   0  0  1  0  0  0  0  0  0  0  0  0
   -6.2040   15.3480   -0.2720 C   0  0  0  0  0  0  0  0  0  0  0  0
   -8.2950   14.9770    2.3970 C   0  0  0  0  0  0  0  0  0  0  0  0
   -8.1680   14.3580   -0.0070 N   0  0  0  0  0  0  0  0  0  0  0  0
   -7.4300   15.2530   -0.7340 C   0  0  0  0  0  0  0  0  0  0  0  0
   -9.5420   15.7100    1.9010 C   0  0  0  0  0  0  0  0  0  0  0  0
  -10.7190   15.5000    2.8160 C   0  0  0  0  0  0  0  0  0  0  0  0
  -11.4140   14.3700    2.5580 O   0  0  0  0  0  0  0  0  0  0  0  0
  -11.0340   16.2650    3.7110 O   0  0  0  0  0  0  0  0  0  0  0  0
  1  2  1  0
  2  3  2  0
  2  4  1  0
  4  5  2  0
  4  6  1  0
  5  7  1  0
  6  8  2  0
  7  9  2  0
  8  9  1  0
 10  7  1  1
 10 11  1  0
 10 12  1  0
 11 13  2  0
 12 14  2  0
 15 13  1  1
 14 15  1  0
 15 16  1  0
 15 17  1  0
 16 18  1  1
 16 19  1  0
 17 20  2  0
 19 20  1  0
 18 21  1  0
 21 22  1  0
 22 23  1  0
 22 24  2  0
M  END
