mac-x0303-mac-x0345
     RDKit          3D

 15 16  0  0  0  0  0  0  0  0999 V2000
   -8.2230   13.0620    2.9620 N   0  0  0  0  0  0  0  0  0  0  0  0
   -8.5770   14.4730    2.1090 S   0  0  0  0  0  0  0  0  0  0  0  0
   -8.4490   15.5900    3.0090 O   0  0  0  0  0  0  0  0  0  0  0  0
   -9.7490   14.2660    1.2930 O   0  0  0  0  0  0  0  0  0  0  0  0
   -7.2420   14.6590    0.9770 C   0  0  0  0  0  0  0  0  0  0  0  0
   -7.3610   14.7710   -0.3890 N   0  0  0  0  0  0  0  0  0  0  0  0
   -5.9910   14.7100    1.3480 N   0  0  0  0  0  0  0  0  0  0  0  0
   -6.0930   14.9030   -0.9120 C   0  0  0  0  0  0  0  0  0  0  0  0
   -5.2800   14.8610    0.1990 C   0  0  0  0  0  0  0  0  0  0  0  0
   -5.5820   15.0480   -2.2050 C   0  0  0  0  0  0  0  0  0  0  0  0
   -3.9190   14.9630    0.0490 C   0  0  0  0  0  0  0  0  0  0  0  0
   -6.3650   15.0710   -3.3470 N   0  0  0  0  0  0  0  0  0  0  0  0
   -2.9110   14.8720    1.6020 Br  0  0  0  0  0  0  0  0  0  0  0  0
   -4.1840   15.1610   -2.3220 C   0  0  0  0  0  0  0  0  0  0  0  0
   -3.3510   15.1190   -1.2080 C   0  0  0  0  0  0  0  0  0  0  0  0
  2  1  1  0
  2  3  2  0
  2  4  2  0
  2  5  1  0
  5  6  1  0
  5  7  2  0
  6  8  1  0
  7  9  1  0
  8  9  2  0
  8 10  1  0
  9 11  1  0
 10 12  1  0
 11 13  1  0
 10 14  2  0
 11 15  2  0
 14 15  1  0
M  END
