mac-x0228-mac-x0131
     RDKit          3D

 29 33  0  0  0  0  0  0  0  0999 V2000
   -2.9560   12.8880   -5.0410 O   0  0  0  0  0  0  0  0  0  0  0  0
   -2.8080   13.4630   -3.8200 C   0  0  0  0  0  0  0  0  0  0  0  0
   -1.6780   13.7690   -3.1830 C   0  0  0  0  0  0  0  0  0  0  0  0
   -4.0920   13.7650   -3.0730 C   0  0  0  0  0  0  0  0  0  0  0  0
   -4.1740   13.3720   -1.7030 C   0  0  0  0  0  0  0  0  0  0  0  0
   -5.2150   14.4250   -3.6450 C   0  0  0  0  0  0  0  0  0  0  0  0
   -2.0960   14.2910   -1.9860 N   0  0  0  0  0  0  0  0  0  0  0  0
   -0.4240   13.4100   -3.7650 C   0  0  0  0  0  0  0  0  0  0  0  0
   -5.3180   13.6490   -0.9680 C   0  0  0  0  0  0  0  0  0  0  0  0
   -6.3660   14.6910   -2.8750 C   0  0  0  0  0  0  0  0  0  0  0  0
   -3.3020   14.9830   -2.0590 C   0  0  0  0  0  0  0  0  0  0  0  0
   -1.6890   14.2990   -0.6630 C   0  0  0  0  0  0  0  0  0  0  0  0
    0.8930   13.8150   -3.5900 C   0  0  0  0  0  0  0  0  0  0  0  0
   -0.4360   12.4300   -4.7270 O   0  0  0  0  0  0  0  0  0  0  0  0
   -4.0240   15.2320   -3.3370 C   0  0  0  0  0  0  0  0  0  0  0  0
   -6.3910   14.3000   -1.5470 C   0  0  0  0  0  0  0  0  0  0  0  0
   -5.6190   13.3500    0.4590 C   0  0  0  0  0  0  0  0  0  0  0  0
   -3.6990   15.3500   -0.8330 C   0  0  0  0  0  0  0  0  0  0  0  0
   -2.7050   14.9240    0.0340 C   0  0  0  0  0  0  0  0  0  0  0  0
   -0.5700   13.7930   -0.1140 N   0  0  0  0  0  0  0  0  0  0  0  0
    0.8170   12.2200   -5.1480 C   0  0  0  0  0  0  0  0  0  0  0  0
    1.6820   13.0430   -4.4810 C   0  0  0  0  0  0  0  0  0  0  0  0
   -4.9280   16.0490   -0.4340 C   0  0  0  0  0  0  0  0  0  0  0  0
   -7.4480   14.5090   -0.6910 O   0  0  0  0  0  0  0  0  0  0  0  0
   -7.0000   13.9980    0.5910 C   0  0  0  0  0  0  0  0  0  0  0  0
   -2.6230   15.0270    1.3710 C   0  0  0  0  0  0  0  0  0  0  0  0
   -0.5730   13.9800    1.2200 C   0  0  0  0  0  0  0  0  0  0  0  0
   -3.6770   15.5970    2.0650 N   0  0  0  0  0  0  0  0  0  0  0  0
   -1.5270   14.5520    1.9740 N   0  0  0  0  0  0  0  0  0  0  0  0
  1  2  1  0
  2  3  2  3
  2  4  1  0
  4  5  2  0
  4  6  1  0
  3  7  1  0
  3  8  1  0
  5  9  1  0
  6 10  2  0
  7 11  1  0
  7 12  1  0
  8 13  2  0
  8 14  1  0
 11 15  1  0
  9 16  2  0
 10 16  1  0
  9 17  1  0
 11 18  2  0
 12 19  2  0
 18 19  1  0
 12 20  1  0
 14 21  1  0
 13 22  1  0
 21 22  2  0
 18 23  1  0
 16 24  1  0
 17 25  1  0
 24 25  1  0
 19 26  1  0
 20 27  2  0
 26 28  1  0
 26 29  2  0
 27 29  1  0
M  END
