mac-x0321-mac-x0319
     RDKit          3D

 21 22  0  0  0  0  0  0  0  0999 V2000
   -4.3840   15.5430    1.6550 Cl  0  0  0  0  0  0  0  0  0  0  0  0
   -4.6300   15.2790   -0.0160 C   0  0  0  0  0  0  0  0  0  0  0  0
   -3.5590   14.8880   -0.7690 C   0  0  0  0  0  0  0  0  0  0  0  0
   -5.8790   15.4490   -0.6200 C   0  0  0  0  0  0  0  0  0  0  0  0
   -3.7430   14.6710   -2.1220 C   0  0  0  0  0  0  0  0  0  0  0  0
   -6.0490   15.2460   -1.9720 C   0  0  0  0  0  0  0  0  0  0  0  0
   -2.6210   14.2350   -2.9370 C   0  0  2  0  0  0  0  0  0  0  0  0
   -4.9720   14.8540   -2.7280 C   0  0  0  0  0  0  0  0  0  0  0  0
   -1.4100   14.5540   -2.2230 O   0  0  0  0  0  0  0  0  0  0  0  0
   -2.6060   14.8960   -4.3040 C   0  0  0  0  0  0  0  0  0  0  0  0
   -1.1740   15.0270   -4.3940 C   0  0  0  0  0  0  0  0  0  0  0  0
   -0.5420   16.1970   -4.6950 C   0  0  0  0  0  0  0  0  0  0  0  0
   -0.4770   13.8680   -4.1160 C   0  0  0  0  0  0  0  0  0  0  0  0
    0.8900   13.8390   -4.1150 C   0  0  0  0  0  0  0  0  0  0  0  0
    0.8200   16.2030   -4.7040 C   0  0  0  0  0  0  0  0  0  0  0  0
    1.5410   12.5180   -3.7770 C   0  0  0  0  0  0  0  0  0  0  0  0
    1.3460   17.4080   -5.0040 O   0  0  0  0  0  0  0  0  0  0  0  0
    1.5690   15.0390   -4.4160 C   0  0  0  0  0  0  0  0  0  0  0  0
    0.9210   11.9030   -2.5150 C   0  0  0  0  0  0  0  0  0  0  0  0
    0.5970   10.5830   -2.5960 O   0  0  0  0  0  0  0  0  0  0  0  0
    0.7050   12.4870   -1.4610 O   0  0  0  0  0  0  0  0  0  0  0  0
  1  2  1  0
  2  3  2  0
  2  4  1  0
  3  5  1  0
  4  6  2  0
  5  7  1  0
  5  8  2  0
  6  8  1  0
  7  9  1  1
  7 10  1  0
 10 11  1  0
 11 12  2  0
 11 13  1  0
 13 14  2  0
 12 15  1  0
 14 16  1  0
 15 17  1  0
 14 18  1  0
 15 18  2  0
 16 19  1  0
 19 20  1  0
 19 21  2  0
M  END
