mac-x0271-diamond-x0128_0_A
     RDKit          3D

 22 24  0  0  0  0  0  0  0  0999 V2000
   -3.5440   15.6920   -1.8630 O   0  0  0  0  0  0  0  0  0  0  0  0
   -4.6110   15.3760   -1.0730 C   0  0  0  0  0  0  0  0  0  0  0  0
   -4.5580   15.4250    0.3420 C   0  0  0  0  0  0  0  0  0  0  0  0
   -5.7810   15.0040   -1.7290 C   0  0  0  0  0  0  0  0  0  0  0  0
   -6.8800   14.6690   -0.9480 C   0  0  0  0  0  0  0  0  0  0  0  0
   -5.7170   15.0760    1.0940 C   0  0  0  0  0  0  0  0  0  0  0  0
   -5.9600   15.0680    2.5020 N   0  0  0  0  0  0  0  0  0  0  0  0
   -6.8420   14.6900    0.4310 C   0  0  0  0  0  0  0  0  0  0  0  0
   -8.0920   14.3010   -1.5640 O   0  0  0  0  0  0  0  0  0  0  0  0
   -7.2470   15.2410    3.1190 C   0  0  0  0  0  0  0  0  0  0  0  0
   -8.0300   14.2980    1.1690 C   0  0  0  0  0  0  0  0  0  0  0  0
   -9.2550   14.5720   -0.8510 C   0  0  0  0  0  0  0  0  0  0  0  0
  -10.2720   15.0570   -1.3180 O   0  0  0  0  0  0  0  0  0  0  0  0
   -8.3120   15.3120    2.5150 O   0  0  0  0  0  0  0  0  0  0  0  0
   -7.2070   15.3740    4.4970 N   0  0  0  0  0  0  0  0  0  0  0  0
   -9.1830   14.2440    0.5580 C   0  0  0  0  0  0  0  0  0  0  0  0
   -8.1570   16.0750    5.2970 C   0  0  0  0  0  0  0  0  0  0  0  0
   -8.9200   17.1730    4.8860 C   0  0  0  0  0  0  0  0  0  0  0  0
   -8.3520   15.6410    6.6100 C   0  0  0  0  0  0  0  0  0  0  0  0
   -9.8190   17.8240    5.6700 N   0  0  0  0  0  0  0  0  0  0  0  0
   -9.2690   16.2970    7.4360 C   0  0  0  0  0  0  0  0  0  0  0  0
   -9.9710   17.3730    6.9270 C   0  0  0  0  0  0  0  0  0  0  0  0
  1  2  1  0
  2  3  2  0
  2  4  1  0
  4  5  2  0
  3  6  1  0
  6  7  1  0
  5  8  1  0
  6  8  2  0
  5  9  1  0
  7 10  1  0
  8 11  1  0
  9 12  1  0
 12 13  2  0
 10 14  2  0
 10 15  1  0
 11 16  2  0
 12 16  1  0
 15 17  1  0
 17 18  2  0
 17 19  1  0
 18 20  1  0
 19 21  2  0
 20 22  2  0
 21 22  1  0
M  END
