mac-x0306-mac-x0231
     RDKit          3D

 27 30  0  0  0  0  0  0  0  0999 V2000
    1.0080   10.7650   -3.2770 O   0  0  0  0  0  0  0  0  0  0  0  0
    1.5490   11.9870   -3.1720 C   0  0  0  0  0  0  0  0  0  0  0  0
    1.5900   12.5260   -2.0830 O   0  0  0  0  0  0  0  0  0  0  0  0
    2.0350   12.5750   -4.4680 C   0  0  0  0  0  0  0  0  0  0  0  0
    1.4490   13.9530   -4.5200 C   0  0  0  0  0  0  0  0  0  0  0  0
    0.0080   14.0420   -4.5030 C   0  0  0  0  0  0  0  0  0  0  0  0
    2.2080   14.9860   -4.4770 N   0  0  0  0  0  0  0  0  0  0  0  0
   -0.5780   15.2990   -4.4950 C   0  0  0  0  0  0  0  0  0  0  0  0
    1.6330   16.2170   -4.4630 N   0  0  0  0  0  0  0  0  0  0  0  0
   -0.7330   12.8770   -4.4600 C   0  0  0  0  0  0  0  0  0  0  0  0
    0.2960   16.4860   -4.5690 C   0  0  0  0  0  0  0  0  0  0  0  0
   -1.9670   15.3860   -4.3910 C   0  0  0  0  0  0  0  0  0  0  0  0
   -2.0880   12.9550   -4.3570 C   0  0  0  0  0  0  0  0  0  0  0  0
   -0.1410   17.6240   -4.7150 O   0  0  0  0  0  0  0  0  0  0  0  0
   -2.6940   14.1860   -4.2980 C   0  0  0  0  0  0  0  0  0  0  0  0
   -4.1420   14.1430   -4.0850 C   0  0  0  0  0  0  0  0  0  0  0  0
   -4.1830   14.4120   -2.6200 N   0  0  0  0  0  0  0  0  0  0  0  0
   -4.5300   15.6300   -2.2390 C   0  0  0  0  0  0  0  0  0  0  0  0
   -3.7260   13.6630   -1.5190 C   0  0  0  0  0  0  0  0  0  0  0  0
   -5.3480   15.7830   -1.2130 C   0  0  0  0  0  0  0  0  0  0  0  0
   -4.5060   13.6750   -0.4140 C   0  0  0  0  0  0  0  0  0  0  0  0
   -5.7730   14.4930   -0.5880 C   0  0  0  0  0  0  0  0  0  0  0  0
   -6.8110   14.5840    0.4910 C   0  0  0  0  0  0  0  0  0  0  0  0
   -6.5970   14.4920    1.8510 N   0  0  0  0  0  0  0  0  0  0  0  0
   -8.0930   14.7630    0.2390 N   0  0  0  0  0  0  0  0  0  0  0  0
   -8.7150   14.7910    1.4480 C   0  0  0  0  0  0  0  0  0  0  0  0
   -7.8080   14.6250    2.4620 C   0  0  0  0  0  0  0  0  0  0  0  0
  1  2  1  0
  2  3  2  0
  2  4  1  0
  4  5  1  0
  5  6  1  0
  5  7  2  0
  6  8  2  0
  7  9  1  0
  6 10  1  0
  8 11  1  0
  9 11  1  0
  8 12  1  0
 10 13  2  0
 11 14  2  0
 12 15  2  0
 13 15  1  0
 15 16  1  0
 16 17  1  0
 17 18  1  0
 17 19  1  0
 18 20  2  0
 19 21  2  0
 20 22  1  0
 21 22  1  0
 22 23  1  0
 23 24  1  0
 23 25  2  0
 25 26  1  0
 24 27  1  0
 26 27  2  0
M  END
