mac-x0123-diamond-x0371_0_A
     RDKit          3D

 22 25  0  0  0  0  0  0  0  0999 V2000
   -3.6320   14.8740    1.6940 N   0  0  0  0  0  0  0  0  0  0  0  0
   -4.7480   14.2020    1.0470 C   0  0  1  0  0  0  0  0  0  0  0  0
   -6.1480   14.3920    1.6300 C   0  0  1  0  0  0  0  0  0  0  0  0
   -4.8870   14.8770   -0.2310 N   0  0  0  0  0  0  0  0  0  0  0  0
   -5.9420   14.2990   -1.0580 C   0  0  1  0  0  0  0  0  0  0  0  0
   -7.1620   13.6260    0.8070 C   0  0  1  0  0  0  0  0  0  0  0  0
   -6.7470   13.9500    2.8950 C   0  0  0  0  0  0  0  0  0  0  0  0
   -3.7070   14.9390   -1.0740 N   0  0  0  0  0  0  0  0  0  0  0  0
   -7.3530   14.1740   -0.4710 N   0  0  0  0  0  0  0  0  0  0  0  0
   -7.0610   12.2330    1.3330 C   0  0  0  0  0  0  0  0  0  0  0  0
   -7.2680   12.7110    2.7480 C   0  0  0  0  0  0  0  0  0  0  0  0
   -5.7680   15.1390   -2.2230 N   0  0  0  0  0  0  0  0  0  0  0  0
   -4.2970   15.0680   -2.4090 C   0  0  0  0  0  0  0  0  0  0  0  0
   -8.2570   15.2070    0.1370 C   0  0  0  0  0  0  0  0  0  0  0  0
   -8.2360   15.0420    1.6560 N   0  0  0  0  0  0  0  0  0  0  0  0
   -9.0370   15.7130    2.6360 C   0  0  0  0  0  0  0  0  0  0  0  0
   -9.9650   16.4110    2.2550 O   0  0  0  0  0  0  0  0  0  0  0  0
   -8.7590   15.5910    4.1130 C   0  0  0  0  0  0  0  0  0  0  0  0
   -8.3910   14.3890    4.6810 O   0  0  0  0  0  0  0  0  0  0  0  0
   -8.8020   16.5300    5.1530 C   0  0  0  0  0  0  0  0  0  0  0  0
   -8.4490   15.8700    6.3660 C   0  0  0  0  0  0  0  0  0  0  0  0
   -8.2050   14.5690    6.0240 C   0  0  0  0  0  0  0  0  0  0  0  0
  2  1  1  1
  2  3  1  0
  2  4  1  0
  4  5  1  0
  3  6  1  0
  3  7  1  1
  4  8  1  0
  5  9  1  0
  6  9  1  0
  6 10  1  6
  7 11  2  0
 10 11  1  0
  5 12  1  6
  8 13  1  0
 12 13  1  0
  9 14  1  0
 14 15  1  0
 15 16  1  0
 16 17  2  0
 16 18  1  0
 18 19  1  0
 18 20  2  0
 20 21  1  0
 19 22  1  0
 21 22  2  0
M  END
