mac-x0437-diamond-x0282_0_A
     RDKit          3D

 30 33  0  0  0  0  0  0  0  0999 V2000
    2.9280   12.3080   -2.9790 O   0  0  0  0  0  0  0  0  0  0  0  0
    1.6520   12.7560   -3.3180 C   0  0  0  0  0  0  0  0  0  0  0  0
    0.7650   11.7150   -2.9490 O   0  0  0  0  0  0  0  0  0  0  0  0
    1.6360   12.9540   -4.8410 C   0  0  0  0  0  0  0  0  0  0  0  0
    1.5340   14.0960   -2.5660 C   0  0  0  0  0  0  0  0  0  0  0  0
    0.2480   13.2400   -5.4150 C   0  0  0  0  0  0  0  0  0  0  0  0
    0.1530   14.7420   -2.4780 C   0  0  0  0  0  0  0  0  0  0  0  0
   -0.5300   12.0320   -5.6180 N   0  0  0  0  0  0  0  0  0  0  0  0
   -0.4080   14.6750   -1.0840 C   0  0  0  0  0  0  0  0  0  0  0  0
   -1.6540   11.6950   -4.9240 C   0  0  0  0  0  0  0  0  0  0  0  0
   -0.2770   11.0410   -6.5280 C   0  0  0  0  0  0  0  0  0  0  0  0
   -1.7270   14.5530   -0.9480 N   0  0  0  0  0  0  0  0  0  0  0  0
    0.4240   14.7370   -0.0170 C   0  0  0  0  0  0  0  0  0  0  0  0
   -2.1500   10.5460   -5.3220 N   0  0  0  0  0  0  0  0  0  0  0  0
   -1.3040   10.1250   -6.3190 C   0  0  0  0  0  0  0  0  0  0  0  0
    0.7190   10.8570   -7.4870 C   0  0  0  0  0  0  0  0  0  0  0  0
   -0.1620   14.6580    1.2230 C   0  0  0  0  0  0  0  0  0  0  0  0
   -2.2360   14.4910    0.2890 C   0  0  0  0  0  0  0  0  0  0  0  0
   -1.3560    8.9590   -7.0940 C   0  0  0  0  0  0  0  0  0  0  0  0
    0.6540    9.6890   -8.2520 C   0  0  0  0  0  0  0  0  0  0  0  0
   -3.5900   14.3750    0.3670 N   0  0  0  0  0  0  0  0  0  0  0  0
   -1.4800   14.5390    1.4080 N   0  0  0  0  0  0  0  0  0  0  0  0
   -0.3630    8.7550   -8.0610 C   0  0  0  0  0  0  0  0  0  0  0  0
   -4.1810   13.9920    1.6210 C   0  0  0  0  0  0  0  0  0  0  0  0
   -4.3770   14.3610   -0.8620 C   0  0  0  0  0  0  0  0  0  0  0  0
   -5.4400   14.8180    1.8190 C   0  0  0  0  0  0  0  0  0  0  0  0
   -5.6980   15.1010   -0.6850 C   0  0  0  0  0  0  0  0  0  0  0  0
   -6.3950   14.6890    0.6190 C   0  0  0  0  0  0  0  0  0  0  0  0
   -7.0940   13.3460    0.5060 C   0  0  0  0  0  0  0  0  0  0  0  0
   -8.4420   13.5940    0.1100 O   0  0  0  0  0  0  0  0  0  0  0  0
  2  1  1  0
  2  3  1  0
  2  4  1  0
  2  5  1  0
  4  6  1  0
  5  7  1  0
  6  8  1  0
  7  9  1  0
  8 10  1  0
  8 11  1  0
  9 12  2  0
  9 13  1  0
 10 14  2  0
 11 15  2  0
 14 15  1  0
 11 16  1  0
 13 17  2  0
 12 18  1  0
 15 19  1  0
 16 20  2  0
 18 21  1  0
 17 22  1  0
 18 22  2  0
 19 23  2  0
 20 23  1  0
 21 24  1  0
 21 25  1  0
 24 26  1  0
 25 27  1  0
 26 28  1  0
 27 28  1  0
 28 29  1  0
 29 30  1  0
M  END
