mac-x0188-diamond-x0724_0_A
     RDKit          3D

 22 24  0  0  0  0  0  0  0  0999 V2000
    0.9390   13.2860   -5.2750 C   0  0  0  0  0  0  0  0  0  0  0  0
   -0.2820   13.6430   -4.5110 C   0  0  0  0  0  0  0  0  0  0  0  0
   -1.4610   13.6450   -5.1850 O   0  0  0  0  0  0  0  0  0  0  0  0
   -0.5180   13.9960   -3.1980 C   0  0  0  0  0  0  0  0  0  0  0  0
    0.5050   14.0960   -2.2020 C   0  0  0  0  0  0  0  0  0  0  0  0
   -2.4940   13.9980   -4.3250 N   0  0  0  0  0  0  0  0  0  0  0  0
   -1.9300   14.2140   -3.1150 C   0  0  0  0  0  0  0  0  0  0  0  0
    1.0150   15.1380   -1.8320 O   0  0  0  0  0  0  0  0  0  0  0  0
    0.8900   12.9320   -1.6690 O   0  0  0  0  0  0  0  0  0  0  0  0
   -2.7500   14.6270   -1.8820 C   0  0  1  0  0  0  0  0  0  0  0  0
   -3.9570   15.5260   -2.0470 C   0  0  0  0  0  0  0  0  0  0  0  0
   -3.0380   13.5190   -0.9130 C   0  0  0  0  0  0  0  0  0  0  0  0
   -5.0640   15.4860   -1.2350 C   0  0  0  0  0  0  0  0  0  0  0  0
   -4.1400   13.4610   -0.1250 C   0  0  0  0  0  0  0  0  0  0  0  0
   -5.2720   14.4880   -0.0830 C   0  0  2  0  0  0  0  0  0  0  0  0
   -6.6060   13.8740   -0.3680 N   0  0  0  0  0  0  0  0  0  0  0  0
   -5.4210   14.9210    1.4260 C   0  0  0  0  0  0  0  0  0  0  0  0
   -6.8300   14.4110    1.8940 C   0  0  2  0  0  0  0  0  0  0  0  0
   -7.5890   14.4280    0.5860 C   0  0  0  0  0  0  0  0  0  0  0  0
   -7.5700   15.0240    3.1210 C   0  0  0  0  0  0  0  0  0  0  0  0
   -8.4530   14.0870    3.8480 N   0  0  0  0  0  0  0  0  0  0  0  0
   -8.3710   14.2560    5.2980 C   0  0  0  0  0  0  0  0  0  0  0  0
  1  2  1  0
  2  3  1  0
  2  4  2  0
  4  5  1  0
  3  6  1  0
  4  7  1  0
  6  7  2  0
  5  8  2  0
  5  9  1  0
 10  7  1  6
 10 11  1  0
 10 12  1  0
 11 13  2  0
 12 14  2  0
 15 13  1  6
 14 15  1  0
 15 16  1  0
 15 17  1  0
 17 18  1  0
 16 19  1  0
 18 19  1  0
 18 20  1  1
 20 21  1  0
 21 22  1  0
M  END
