mac-x0496-diamond-x0962_0_A
     RDKit          3D

 20 21  0  0  0  0  0  0  0  0999 V2000
   -9.9320   17.8040    4.7680 C   0  0  0  0  0  0  0  0  0  0  0  0
   -9.9660   16.7870    3.6960 C   0  0  0  0  0  0  0  0  0  0  0  0
  -10.9800   16.6550    2.8290 N   0  0  0  0  0  0  0  0  0  0  0  0
   -8.9530   15.8920    3.5210 N   0  0  0  0  0  0  0  0  0  0  0  0
  -10.5780   15.5930    2.0150 O   0  0  0  0  0  0  0  0  0  0  0  0
   -9.3630   15.1880    2.4930 C   0  0  0  0  0  0  0  0  0  0  0  0
   -8.6990   14.0500    1.8190 C   0  0  0  0  0  0  0  0  0  0  0  0
   -7.2760   14.3120    1.6950 N   0  0  0  0  0  0  0  0  0  0  0  0
   -6.7740   14.6790    0.4670 C   0  0  0  0  0  0  0  0  0  0  0  0
   -7.4780   14.8860   -0.5150 O   0  0  0  0  0  0  0  0  0  0  0  0
   -5.3010   14.8110    0.3830 C   0  0  0  0  0  0  0  0  0  0  0  0
   -4.5130   14.9560    1.5200 C   0  0  0  0  0  0  0  0  0  0  0  0
   -4.7030   14.7820   -0.8730 C   0  0  0  0  0  0  0  0  0  0  0  0
   -3.1350   15.0560    1.4050 C   0  0  0  0  0  0  0  0  0  0  0  0
   -3.3120   14.8840   -1.0030 C   0  0  0  0  0  0  0  0  0  0  0  0
   -2.7130   14.8250   -2.3870 C   0  0  0  0  0  0  0  0  0  0  0  0
   -2.5330   15.0190    0.1540 C   0  0  0  0  0  0  0  0  0  0  0  0
   -1.3340   15.1150   -2.4160 O   0  0  0  0  0  0  0  0  0  0  0  0
   -3.3520   15.7000   -3.2930 O   0  0  0  0  0  0  0  0  0  0  0  0
   -2.9000   13.4150   -2.8540 C   0  0  0  0  0  0  0  0  0  0  0  0
  1  2  1  0
  2  3  2  0
  2  4  1  0
  3  5  1  0
  4  6  2  0
  5  6  1  0
  6  7  1  0
  7  8  1  0
  8  9  1  0
  9 10  2  0
  9 11  1  0
 11 12  2  0
 11 13  1  0
 12 14  1  0
 13 15  2  0
 15 16  1  0
 14 17  2  0
 15 17  1  0
 16 18  1  0
 16 19  1  0
 16 20  1  0
M  END
