mac-x0348-mac-x0301
     RDKit          3D

 25 28  0  0  0  0  0  0  0  0999 V2000
    0.3250   18.8770   -6.2530 C   0  0  0  0  0  0  0  0  0  0  0  0
   -0.0960   17.6820   -5.5900 N   0  0  0  0  0  0  0  0  0  0  0  0
    0.6850   16.9690   -4.7480 C   0  0  0  0  0  0  0  0  0  0  0  0
   -1.3180   17.0900   -5.7100 C   0  0  0  0  0  0  0  0  0  0  0  0
   -0.0060   15.8800   -4.3140 C   0  0  0  0  0  0  0  0  0  0  0  0
   -1.3030   15.9430   -4.9290 C   0  0  0  0  0  0  0  0  0  0  0  0
   -2.4340   17.4670   -6.4490 C   0  0  0  0  0  0  0  0  0  0  0  0
    0.5280   14.8500   -3.3850 C   0  0  0  0  0  0  0  0  0  0  0  0
   -2.4610   15.1400   -4.9030 C   0  0  0  0  0  0  0  0  0  0  0  0
   -3.5600   16.6540   -6.4160 C   0  0  0  0  0  0  0  0  0  0  0  0
   -0.4550   13.7700   -2.9440 C   0  0  2  0  0  0  0  0  0  0  0  0
   -3.5800   15.5040   -5.6540 C   0  0  0  0  0  0  0  0  0  0  0  0
    0.2840   12.4590   -2.5580 C   0  0  0  0  0  0  0  0  0  0  0  0
   -1.1470   13.3750   -4.1620 O   0  0  0  0  0  0  0  0  0  0  0  0
   -1.4530   14.3080   -1.8820 C   0  0  0  0  0  0  0  0  0  0  0  0
    1.3630   12.4110   -1.9870 O   0  0  0  0  0  0  0  0  0  0  0  0
   -0.2930   11.2880   -2.8780 O   0  0  0  0  0  0  0  0  0  0  0  0
   -1.1240   14.3270   -0.5370 C   0  0  0  0  0  0  0  0  0  0  0  0
   -2.7530   14.8230   -2.1730 C   0  0  0  0  0  0  0  0  0  0  0  0
   -1.9640   14.7980    0.4600 C   0  0  0  0  0  0  0  0  0  0  0  0
   -3.6170   15.3030   -1.1570 C   0  0  0  0  0  0  0  0  0  0  0  0
    0.0510   13.8900   -0.0230 O   0  0  0  0  0  0  0  0  0  0  0  0
   -3.2210   15.2930    0.1850 C   0  0  0  0  0  0  0  0  0  0  0  0
   -1.3970   14.7120    1.7020 O   0  0  0  0  0  0  0  0  0  0  0  0
   -0.0610   14.3680    1.3270 C   0  0  0  0  0  0  0  0  0  0  0  0
  1  2  1  0
  2  3  1  0
  2  4  1  0
  3  5  2  0
  4  6  2  0
  5  6  1  0
  4  7  1  0
  5  8  1  0
  6  9  1  0
  7 10  2  0
  8 11  1  0
  9 12  2  0
 10 12  1  0
 11 13  1  0
 11 14  1  6
 11 15  1  0
 13 16  2  0
 13 17  1  0
 15 18  1  0
 15 19  2  0
 18 20  2  0
 19 21  1  0
 18 22  1  0
 20 23  1  0
 21 23  2  0
 20 24  1  0
 22 25  1  0
 24 25  1  0
M  END
