mac-x0139-mac-x0132
     RDKit          3D

 27 30  0  0  0  0  0  0  0  0999 V2000
   -1.3840   15.6530   -3.1320 C   0  0  0  0  0  0  0  0  0  0  0  0
   -0.2370   15.6550   -2.2120 N   0  0  0  0  0  0  0  0  0  0  0  0
    0.9280   14.9030   -2.7390 C   0  0  0  0  0  0  0  0  0  0  0  0
   -0.6420   15.3060   -0.8920 C   0  0  0  0  0  0  0  0  0  0  0  0
    0.5010   13.7940   -3.7110 C   0  0  0  0  0  0  0  0  0  0  0  0
   -1.9560   15.4690   -0.4920 C   0  0  0  0  0  0  0  0  0  0  0  0
    0.1980   14.8030    0.0340 N   0  0  0  0  0  0  0  0  0  0  0  0
    0.9330   12.4680   -3.1840 C   0  0  0  0  0  0  0  0  0  0  0  0
   -2.3320   15.1090    0.7970 C   0  0  0  0  0  0  0  0  0  0  0  0
   -0.2810   14.4920    1.2700 C   0  0  0  0  0  0  0  0  0  0  0  0
   -3.0910   15.9540   -1.1520 C   0  0  0  0  0  0  0  0  0  0  0  0
    1.7930   12.2610   -2.3560 O   0  0  0  0  0  0  0  0  0  0  0  0
    0.2510   11.4520   -3.7280 O   0  0  0  0  0  0  0  0  0  0  0  0
   -1.5310   14.6090    1.7410 N   0  0  0  0  0  0  0  0  0  0  0  0
   -3.6860   15.3660    0.8870 N   0  0  0  0  0  0  0  0  0  0  0  0
   -4.1270   15.8820   -0.2830 C   0  0  0  0  0  0  0  0  0  0  0  0
   -4.6130   15.1930    1.8720 N   0  0  0  0  0  0  0  0  0  0  0  0
   -5.7810   14.8830    1.1260 C   0  0  0  0  0  0  0  0  0  0  0  0
   -5.6310   14.7690   -0.2980 C   0  0  0  0  0  0  0  0  0  0  0  0
   -6.9700   14.7240    1.7430 N   0  0  0  0  0  0  0  0  0  0  0  0
   -6.8030   14.5000   -0.9960 C   0  0  0  0  0  0  0  0  0  0  0  0
   -8.0090   14.4590    0.9500 C   0  0  0  0  0  0  0  0  0  0  0  0
   -4.4180   14.9030   -1.0700 C   0  0  0  0  0  0  0  0  0  0  0  0
   -7.9830   14.3450   -0.3870 N   0  0  0  0  0  0  0  0  0  0  0  0
   -6.7550   14.3880   -2.3890 C   0  0  0  0  0  0  0  0  0  0  0  0
   -4.3970   14.7820   -2.4630 C   0  0  0  0  0  0  0  0  0  0  0  0
   -5.5710   14.5260   -3.1250 C   0  0  0  0  0  0  0  0  0  0  0  0
  1  2  1  0
  2  3  1  0
  2  4  1  0
  3  5  1  0
  4  6  2  0
  4  7  1  0
  5  8  1  0
  6  9  1  0
  7 10  2  0
  6 11  1  0
  8 12  2  0
  8 13  1  0
  9 14  2  0
 10 14  1  0
  9 15  1  0
 11 16  2  0
 15 16  1  0
 15 17  1  0
 17 18  1  0
 18 19  1  0
 18 20  2  0
 19 21  2  0
 20 22  1  0
 19 23  1  0
 21 24  1  0
 22 24  2  0
 21 25  1  0
 23 26  2  0
 25 27  2  0
 26 27  1  0
M  END
