mac-x0131-mac-x0138
     RDKit          3D

 19 21  0  0  0  0  0  0  0  0999 V2000
   -3.4030   15.1890   -4.2220 C   0  0  0  0  0  0  0  0  0  0  0  0
   -3.0080   15.0630   -2.7930 C   0  0  0  0  0  0  0  0  0  0  0  0
   -3.7880   15.1840   -1.6440 C   0  0  0  0  0  0  0  0  0  0  0  0
   -1.7110   14.7890   -2.3970 N   0  0  0  0  0  0  0  0  0  0  0  0
   -5.2410   15.4760   -1.5600 C   0  0  0  0  0  0  0  0  0  0  0  0
   -0.5550   14.5950   -3.2760 C   0  0  0  0  0  0  0  0  0  0  0  0
   -2.9240   14.9700   -0.5290 C   0  0  0  0  0  0  0  0  0  0  0  0
   -1.6500   14.7220   -1.0170 C   0  0  0  0  0  0  0  0  0  0  0  0
   -3.0730   14.9600    0.8610 C   0  0  0  0  0  0  0  0  0  0  0  0
   -0.5560   14.4630   -0.2690 N   0  0  0  0  0  0  0  0  0  0  0  0
   -0.4090   13.1700   -3.6360 C   0  0  0  0  0  0  0  0  0  0  0  0
   -4.2670   15.2100    1.5140 N   0  0  0  0  0  0  0  0  0  0  0  0
   -2.0090   14.6930    1.6240 N   0  0  0  0  0  0  0  0  0  0  0  0
   -0.8450   14.4630    1.0490 C   0  0  0  0  0  0  0  0  0  0  0  0
    0.3830   12.1420   -3.1640 C   0  0  0  0  0  0  0  0  0  0  0  0
   -1.2080   12.7120   -4.6400 O   0  0  0  0  0  0  0  0  0  0  0  0
    0.1260   14.1950    1.9750 N   0  0  0  0  0  0  0  0  0  0  0  0
   -0.9270   11.3950   -4.8070 C   0  0  0  0  0  0  0  0  0  0  0  0
    0.0340   11.0000   -3.9210 C   0  0  0  0  0  0  0  0  0  0  0  0
  1  2  1  0
  2  3  2  0
  2  4  1  0
  3  5  1  0
  4  6  1  0
  3  7  1  0
  4  8  1  0
  7  8  2  0
  7  9  1  0
  8 10  1  0
  6 11  1  0
  9 12  1  0
  9 13  2  0
 10 14  2  0
 13 14  1  0
 11 15  2  0
 11 16  1  0
 14 17  1  0
 16 18  1  0
 15 19  1  0
 18 19  2  0
M  END
