mac-x0231-mac-x0394
     RDKit          3D

 16 17  0  0  0  0  0  0  0  0999 V2000
    0.4650   10.9370   -3.5110 O   0  0  0  0  0  0  0  0  0  0  0  0
    1.1890   12.0770   -3.4290 C   0  0  0  0  0  0  0  0  0  0  0  0
    1.5110   12.5470   -2.3490 O   0  0  0  0  0  0  0  0  0  0  0  0
    1.5110   12.7530   -4.7560 C   0  0  0  0  0  0  0  0  0  0  0  0
    0.7860   14.0600   -4.6490 C   0  0  0  0  0  0  0  0  0  0  0  0
   -0.5140   14.2570   -4.9920 C   0  0  0  0  0  0  0  0  0  0  0  0
    1.5610   15.0580   -4.1110 N   0  0  0  0  0  0  0  0  0  0  0  0
   -1.1800   15.5950   -4.7020 C   0  0  2  0  0  0  0  0  0  0  0  0
    1.1600   16.2350   -3.9600 N   0  0  0  0  0  0  0  0  0  0  0  0
   -1.4120   13.2830   -5.5580 C   0  0  0  0  0  0  0  0  0  0  0  0
   -2.4430   16.2820   -5.7960 Cl  0  0  0  0  0  0  0  0  0  0  0  0
   -0.0870   16.6680   -4.4190 C   0  0  0  0  0  0  0  0  0  0  0  0
   -2.2650   15.2320   -3.7310 C   0  0  0  0  0  0  0  0  0  0  0  0
   -2.6310   13.2160   -5.0270 C   0  0  0  0  0  0  0  0  0  0  0  0
   -0.2960   17.8680   -4.6050 O   0  0  0  0  0  0  0  0  0  0  0  0
   -2.9570   14.0920   -3.9240 C   0  0  0  0  0  0  0  0  0  0  0  0
  1  2  1  0
  2  3  2  0
  2  4  1  0
  4  5  1  0
  5  6  2  0
  5  7  1  0
  6  8  1  0
  7  9  2  0
  6 10  1  0
  8 11  1  6
  8 12  1  0
  9 12  1  0
  8 13  1  0
 10 14  2  0
 12 15  2  0
 13 16  2  0
 14 16  1  0
M  END
