mac-x0212-mac-x0255
     RDKit          3D

 28 30  0  0  0  0  0  0  0  0999 V2000
   -6.5960   12.7120    1.5400 C   0  0  0  0  0  0  0  0  0  0  0  0
   -7.0260   14.4060    1.1770 S   0  0  0  0  0  0  0  0  0  0  0  0
   -7.8280   14.9170    2.2680 O   0  0  0  0  0  0  0  0  0  0  0  0
   -7.5050   14.4910   -0.1860 O   0  0  0  0  0  0  0  0  0  0  0  0
   -5.5260   15.1490    1.3080 N   0  0  0  0  0  0  0  0  0  0  0  0
   -4.6210   15.0380    0.2390 C   0  0  0  0  0  0  0  0  0  0  0  0
   -3.3720   14.4860    0.5100 C   0  0  0  0  0  0  0  0  0  0  0  0
   -4.9760   15.4550   -1.0390 C   0  0  0  0  0  0  0  0  0  0  0  0
   -2.4580   14.3380   -0.5220 C   0  0  0  0  0  0  0  0  0  0  0  0
   -4.0690   15.3060   -2.0680 C   0  0  0  0  0  0  0  0  0  0  0  0
   -2.8300   14.7470   -1.7940 C   0  0  0  0  0  0  0  0  0  0  0  0
   -1.9440   14.6090   -2.9030 C   0  0  0  0  0  0  0  0  0  0  0  0
   -0.8140   14.0520   -3.0820 N   0  0  0  0  0  0  0  0  0  0  0  0
   -2.5310   15.2240   -3.9320 O   0  0  0  0  0  0  0  0  0  0  0  0
   -0.1040   13.3280   -2.0290 C   0  0  0  0  0  0  0  0  0  0  0  0
    0.9200   12.4160   -2.7500 C   0  0  0  0  0  0  0  0  0  0  0  0
    2.1200   12.5710   -2.0450 O   0  0  0  0  0  0  0  0  0  0  0  0
    0.5400   11.0530   -2.6300 O   0  0  0  0  0  0  0  0  0  0  0  0
    1.2150   12.8010   -4.2270 C   0  0  0  0  0  0  0  0  0  0  0  0
    0.5970   14.1140   -4.5910 C   0  0  0  0  0  0  0  0  0  0  0  0
    1.1500   15.3780   -4.5690 C   0  0  0  0  0  0  0  0  0  0  0  0
   -1.0260   14.1450   -5.1090 S   0  0  0  0  0  0  0  0  0  0  0  0
    0.2200   16.3960   -4.9640 C   0  0  0  0  0  0  0  0  0  0  0  0
   -1.0260   15.8550   -5.2730 C   0  0  0  0  0  0  0  0  0  0  0  0
    0.3730   17.7940   -5.0790 C   0  0  0  0  0  0  0  0  0  0  0  0
   -2.1170   16.6560   -5.6730 C   0  0  0  0  0  0  0  0  0  0  0  0
   -0.7070   18.5830   -5.4880 C   0  0  0  0  0  0  0  0  0  0  0  0
   -1.9300   18.0250   -5.7760 C   0  0  0  0  0  0  0  0  0  0  0  0
  1  2  1  0
  2  3  2  0
  2  4  2  0
  2  5  1  0
  5  6  1  0
  6  7  2  0
  6  8  1  0
  7  9  1  0
  8 10  2  0
  9 11  2  0
 10 11  1  0
 11 12  1  0
 12 13  2  3
 12 14  1  0
 13 15  1  0
 15 16  1  0
 16 17  1  0
 16 18  1  0
 16 19  1  0
 19 20  1  0
 20 21  2  0
 20 22  1  0
 21 23  1  0
 22 24  1  0
 23 24  2  0
 23 25  1  0
 24 26  1  0
 25 27  2  0
 26 28  2  0
 27 28  1  0
M  END
