mac-x0163-mac-x0348
     RDKit          3D

 32 36  0  0  0  0  0  0  0  0999 V2000
   -4.8500   14.6400   -0.6610 Cl  0  0  0  0  0  0  0  0  0  0  0  0
   -3.2370   14.4560   -0.0730 C   0  0  0  0  0  0  0  0  0  0  0  0
   -2.8870   15.0160    1.1200 C   0  0  0  0  0  0  0  0  0  0  0  0
   -2.2950   13.7530   -0.7680 C   0  0  0  0  0  0  0  0  0  0  0  0
   -3.8630   15.6970    1.8410 N   0  0  0  0  0  0  0  0  0  0  0  0
   -1.0210   13.6510   -0.2870 N   0  0  0  0  0  0  0  0  0  0  0  0
   -1.6480   14.9310    1.6410 N   0  0  0  0  0  0  0  0  0  0  0  0
   -2.7590   13.1620   -1.9680 N   0  0  0  0  0  0  0  0  0  0  0  0
   -0.7620   14.2520    0.8960 C   0  0  0  0  0  0  0  0  0  0  0  0
   -2.0850   11.9710   -2.5480 C   0  0  0  0  0  0  0  0  0  0  0  0
   -3.2570   14.1510   -2.9220 C   0  0  0  0  0  0  0  0  0  0  0  0
   -1.2540   12.4100   -3.7840 C   0  0  0  0  0  0  0  0  0  0  0  0
   -2.0640   14.6900   -3.6790 C   0  0  0  0  0  0  0  0  0  0  0  0
   -0.3250   11.2720   -4.3460 C   0  0  0  0  0  0  0  0  0  0  0  0
   -2.0190   12.2740   -5.1500 C   0  0  0  0  0  0  0  0  0  0  0  0
   -0.8500   13.8400   -3.3450 C   0  0  2  0  0  0  0  0  0  0  0  0
    0.4560   14.5070   -3.7170 C   0  0  1  0  0  0  0  0  0  0  0  0
   -1.4940   10.8300   -5.2400 C   0  0  0  0  0  0  0  0  0  0  0  0
    1.4650   13.5050   -4.2380 C   0  0  0  0  0  0  0  0  0  0  0  0
    0.0160   15.6810   -4.5540 C   0  0  0  0  0  0  0  0  0  0  0  0
    1.5620   12.5290   -3.0880 C   0  0  0  0  0  0  0  0  0  0  0  0
    0.7700   16.7560   -4.8720 C   0  0  0  0  0  0  0  0  0  0  0  0
   -1.2700   15.8880   -5.1520 C   0  0  0  0  0  0  0  0  0  0  0  0
    2.1720   12.7000   -2.0590 O   0  0  0  0  0  0  0  0  0  0  0  0
    0.8680   11.3930   -3.2450 O   0  0  0  0  0  0  0  0  0  0  0  0
    0.0350   17.6010   -5.6280 N   0  0  0  0  0  0  0  0  0  0  0  0
   -1.2210   17.1060   -5.8010 C   0  0  0  0  0  0  0  0  0  0  0  0
   -2.4850   15.1550   -5.2090 C   0  0  0  0  0  0  0  0  0  0  0  0
    0.5240   18.8280   -6.1620 C   0  0  0  0  0  0  0  0  0  0  0  0
   -3.5800   15.6560   -5.9010 C   0  0  0  0  0  0  0  0  0  0  0  0
   -2.3100   17.6230   -6.4810 C   0  0  0  0  0  0  0  0  0  0  0  0
   -3.4870   16.8770   -6.5290 C   0  0  0  0  0  0  0  0  0  0  0  0
  1  2  1  0
  2  3  2  0
  2  4  1  0
  3  5  1  0
  4  6  2  0
  3  7  1  0
  4  8  1  0
  6  9  1  0
  7  9  2  0
  8 10  1  0
  8 11  1  0
 12 10  1  0
 11 13  1  0
 12 14  1  0
 12 15  1  0
 12 16  1  0
 16 13  1  6
 16 17  1  0
 14 18  1  0
 15 18  1  0
 17 19  1  6
 17 20  1  0
 19 21  1  0
 20 22  2  0
 20 23  1  0
 21 24  2  0
 21 25  1  0
 22 26  1  0
 23 27  2  0
 26 27  1  0
 23 28  1  0
 26 29  1  0
 28 30  2  0
 27 31  1  0
 30 32  1  0
 31 32  2  0
M  END
