mac-x0394-mac-x0453
     RDKit          3D

 22 23  0  0  0  0  0  0  0  0999 V2000
    1.0370   18.3180   -4.9510 Cl  0  0  0  0  0  0  0  0  0  0  0  0
    0.3090   16.7890   -4.9360 C   0  0  0  0  0  0  0  0  0  0  0  0
   -1.0450   16.7230   -5.1930 C   0  0  0  0  0  0  0  0  0  0  0  0
    1.0660   15.6540   -4.6730 C   0  0  0  0  0  0  0  0  0  0  0  0
    0.4550   14.4010   -4.6720 C   0  0  0  0  0  0  0  0  0  0  0  0
   -1.6770   15.4890   -5.1980 C   0  0  0  0  0  0  0  0  0  0  0  0
   -3.1510   15.4090   -5.4830 C   0  0  0  0  0  0  0  0  0  0  0  0
    1.2480   13.1490   -4.3930 C   0  0  0  0  0  0  0  0  0  0  0  0
   -0.9220   14.3340   -4.9390 C   0  0  0  0  0  0  0  0  0  0  0  0
    0.8650   12.4930   -3.0760 C   0  0  0  0  0  0  0  0  0  0  0  0
   -3.9470   15.0580   -4.2320 C   0  0  0  0  0  0  0  0  0  0  0  0
    0.2250   11.3190   -3.2600 O   0  0  0  0  0  0  0  0  0  0  0  0
    1.0660   12.9080   -1.9450 O   0  0  0  0  0  0  0  0  0  0  0  0
   -3.2810   14.0510   -3.3170 C   0  0  0  0  0  0  0  0  0  0  0  0
   -3.4430   14.3320   -1.8780 C   0  0  0  0  0  0  0  0  0  0  0  0
   -2.4080   14.5090   -0.9900 N   0  0  0  0  0  0  0  0  0  0  0  0
   -4.5970   14.4380   -1.2750 N   0  0  0  0  0  0  0  0  0  0  0  0
   -4.3100   14.6820    0.0400 C   0  0  0  0  0  0  0  0  0  0  0  0
   -2.9550   14.7340    0.2410 C   0  0  0  0  0  0  0  0  0  0  0  0
   -5.4230   14.8430    0.9920 C   0  0  0  0  0  0  0  0  0  0  0  0
   -6.1410   13.5370    1.3560 C   0  0  0  0  0  0  0  0  0  0  0  0
   -7.0020   13.6880    2.5300 N   0  0  0  0  0  0  0  0  0  0  0  0
  1  2  1  0
  2  3  2  0
  2  4  1  0
  4  5  2  0
  3  6  1  0
  6  7  1  0
  5  8  1  0
  5  9  1  0
  6  9  2  0
  8 10  1  0
  7 11  1  0
 10 12  1  0
 10 13  2  0
 11 14  1  0
 14 15  1  0
 15 16  1  0
 15 17  2  0
 17 18  1  0
 16 19  1  0
 18 19  2  0
 18 20  1  0
 20 21  1  0
 21 22  1  0
M  END
