mac-x0204-diamond-x0727_0_A
     RDKit          3D

 22 23  0  0  0  0  0  0  0  0999 V2000
    0.6630   13.0840   -2.4210 O   0  0  0  0  0  0  0  0  0  0  0  0
    0.1400   14.3020   -2.7090 C   0  0  0  0  0  0  0  0  0  0  0  0
    0.5260   15.3720   -2.2720 O   0  0  0  0  0  0  0  0  0  0  0  0
    0.5250   12.0030   -3.2410 C   0  0  0  0  0  0  0  0  0  0  0  0
    0.9410   12.2930   -4.7040 C   0  0  1  0  0  0  0  0  0  0  0  0
    0.1340   10.8860   -2.8970 O   0  0  0  0  0  0  0  0  0  0  0  0
   -1.0090   14.2510   -3.6640 C   0  0  0  0  0  0  0  0  0  0  0  0
    0.1810   11.3830   -5.5640 N   0  0  0  0  0  0  0  0  0  0  0  0
    0.7390   13.7310   -5.1470 C   0  0  0  0  0  0  0  0  0  0  0  0
   -1.4100   15.3720   -4.4050 C   0  0  0  0  0  0  0  0  0  0  0  0
   -1.7280   13.0670   -3.8540 C   0  0  0  0  0  0  0  0  0  0  0  0
    0.7210   11.0710   -6.7850 C   0  0  0  0  0  0  0  0  0  0  0  0
   -2.4840   15.2650   -5.2850 C   0  0  0  0  0  0  0  0  0  0  0  0
   -2.7800   12.9460   -4.7110 N   0  0  0  0  0  0  0  0  0  0  0  0
   -2.8550   16.3700   -5.9940 O   0  0  0  0  0  0  0  0  0  0  0  0
    1.6570   11.6960   -7.2120 O   0  0  0  0  0  0  0  0  0  0  0  0
   -3.1320   14.0480   -5.4070 C   0  0  0  0  0  0  0  0  0  0  0  0
    0.1200    9.9040   -7.5520 C   0  0  0  0  0  0  0  0  0  0  0  0
   -1.1720   10.2780   -8.2840 C   0  0  0  0  0  0  0  0  0  0  0  0
   -0.2180    8.6970   -6.6580 C   0  0  0  0  0  0  0  0  0  0  0  0
   -2.1300    9.1130   -8.0490 C   0  0  0  0  0  0  0  0  0  0  0  0
   -1.7280    8.5690   -6.6870 C   0  0  0  0  0  0  0  0  0  0  0  0
  1  2  1  0
  2  3  2  0
  1  4  1  0
  4  5  1  0
  4  6  2  0
  2  7  1  0
  5  8  1  0
  5  9  1  6
  7 10  2  0
  7 11  1  0
  8 12  1  0
 10 13  1  0
 11 14  2  0
 13 15  1  0
 12 16  2  0
 13 17  2  0
 14 17  1  0
 12 18  1  0
 18 19  1  0
 18 20  1  0
 19 21  1  0
 20 22  1  0
 21 22  1  0
M  END
