mac-x0433-mac-x1493
     RDKit          3D

 15 16  0  0  0  0  0  0  0  0999 V2000
   -2.9680   15.7140    0.4980 C   0  0  0  0  0  0  0  0  0  0  0  0
   -3.8610   14.6770   -0.1900 C   0  0  1  0  0  0  0  0  0  0  0  0
   -5.0340   14.2080    0.6830 C   0  0  2  0  0  0  0  0  0  0  0  0
   -4.2220   15.1080   -1.5310 N   0  0  0  0  0  0  0  0  0  0  0  0
   -3.1440   15.0400   -2.4290 C   0  0  0  0  0  0  0  0  0  0  0  0
   -5.5390   14.6520   -1.9270 C   0  0  2  0  0  0  0  0  0  0  0  0
   -6.4810   14.3280    0.1570 C   0  0  2  0  0  0  0  0  0  0  0  0
   -5.0010   15.0890    1.8980 C   0  0  0  0  0  0  0  0  0  0  0  0
   -7.0770   12.9690   -0.1710 C   0  0  0  0  0  0  0  0  0  0  0  0
   -5.8970   15.0790   -3.2440 N   0  0  0  0  0  0  0  0  0  0  0  0
   -1.9470   14.8200   -1.8280 O   0  0  0  0  0  0  0  0  0  0  0  0
   -3.1460   15.1500   -3.6450 O   0  0  0  0  0  0  0  0  0  0  0  0
   -6.5770   15.1240   -1.0510 N   0  0  0  0  0  0  0  0  0  0  0  0
   -7.2310   14.6840    1.4150 C   0  0  0  0  0  0  0  0  0  0  0  0
   -6.4000   15.0590    2.3910 C   0  0  0  0  0  0  0  0  0  0  0  0
  2  1  1  1
  2  3  1  0
  2  4  1  0
  4  5  1  0
  4  6  1  0
  3  7  1  0
  3  8  1  1
  7  9  1  6
  6 10  1  6
  5 11  1  0
  5 12  2  0
  6 13  1  0
  7 13  1  0
  7 14  1  0
  8 15  1  0
 14 15  2  0
M  END
