mac-x0546-diamond-x0631_0_A
     RDKit          3D

 34 37  0  0  0  0  0  0  0  0999 V2000
   -4.2530   15.2080   -5.8860 C   0  0  0  0  0  0  0  0  0  0  0  0
   -3.5710   16.1300   -5.0330 O   0  0  0  0  0  0  0  0  0  0  0  0
   -2.2180   16.0580   -5.1630 C   0  0  0  0  0  0  0  0  0  0  0  0
   -1.5100   14.9140   -5.0110 C   0  0  0  0  0  0  0  0  0  0  0  0
   -1.5720   17.3240   -5.4860 C   0  0  0  0  0  0  0  0  0  0  0  0
   -0.0260   14.9500   -5.1970 C   0  0  1  0  0  0  0  0  0  0  0  0
   -0.2600   17.5060   -5.3070 C   0  0  0  0  0  0  0  0  0  0  0  0
    0.4240   16.3260   -4.7650 C   0  0  0  0  0  0  0  0  0  0  0  0
    0.9540   14.1930   -4.3800 C   0  0  0  0  0  0  0  0  0  0  0  0
    1.0800   12.7150   -4.3660 C   0  0  0  0  0  0  0  0  0  0  0  0
    1.3730   16.3680   -3.9190 N   0  0  0  0  0  0  0  0  0  0  0  0
    1.7030   15.0590   -3.7070 C   0  0  0  0  0  0  0  0  0  0  0  0
    0.6190   12.0160   -3.1020 C   0  0  0  0  0  0  0  0  0  0  0  0
    0.8260   12.4470   -1.9730 O   0  0  0  0  0  0  0  0  0  0  0  0
   -0.0340   10.8750   -3.4330 O   0  0  0  0  0  0  0  0  0  0  0  0
   -0.5180   10.8860   -4.7900 C   0  0  0  0  0  0  0  0  0  0  0  0
   -1.3430    9.6500   -5.1110 C   0  0  0  0  0  0  0  0  0  0  0  0
   -0.6070    8.4090   -5.6290 C   0  0  0  0  0  0  0  0  0  0  0  0
   -0.2360    8.2680   -7.1360 C   0  0  1  0  0  0  0  0  0  0  0  0
   -1.5700    8.1710   -7.9190 C   0  0  0  0  0  0  0  0  0  0  0  0
    0.7280    9.2760   -7.6630 N   0  0  0  0  0  0  0  0  0  0  0  0
   -2.5110    9.3570   -7.7810 C   0  0  0  0  0  0  0  0  0  0  0  0
    0.3960   10.6520   -7.4930 N   0  0  0  0  0  0  0  0  0  0  0  0
    1.0020    9.0850   -9.0890 N   0  0  0  0  0  0  0  0  0  0  0  0
    1.0610   11.2550   -8.6130 N   0  0  0  0  0  0  0  0  0  0  0  0
    0.6930   10.3690   -9.6830 C   0  0  1  0  0  0  0  0  0  0  0  0
    1.4790   10.6070  -10.8810 N   0  0  0  0  0  0  0  0  0  0  0  0
    2.3700    9.5890  -11.4370 C   0  0  1  0  0  0  0  0  0  0  0  0
    1.6290    8.4370  -11.7770 O   0  0  0  0  0  0  0  0  0  0  0  0
    3.1810   10.0920  -12.6870 C   0  0  1  0  0  0  0  0  0  0  0  0
    3.1990    9.2230  -13.8130 O   0  0  0  0  0  0  0  0  0  0  0  0
    2.7290   11.4020  -13.3140 C   0  0  0  0  0  0  0  0  0  0  0  0
    3.5550   11.4330  -14.5800 C   0  0  0  0  0  0  0  0  0  0  0  0
    4.0140    9.9860  -14.7260 C   0  0  0  0  0  0  0  0  0  0  0  0
  1  2  1  0
  2  3  1  0
  3  4  2  0
  3  5  1  0
  6  4  1  1
  5  7  2  0
  6  8  1  0
  7  8  1  0
  6  9  1  0
  9 10  1  0
  8 11  2  0
  9 12  2  0
 11 12  1  0
 10 13  1  0
 13 14  2  0
 13 15  1  0
 15 16  1  0
 16 17  1  0
 17 18  1  0
 19 18  1  1
 19 20  1  0
 19 21  1  0
 20 22  1  0
 21 23  1  0
 21 24  1  0
 23 25  1  0
 24 26  1  0
 25 26  1  0
 26 27  1  6
 27 28  1  0
 28 29  1  6
 28 30  1  0
 30 31  1  0
 30 32  1  6
 32 33  1  0
 31 34  1  0
 33 34  1  0
M  END
