mac-x0360-mac-x0226
     RDKit          3D

 28 30  0  0  0  0  0  0  0  0999 V2000
   -7.6100   11.6590    1.7280 Cl  0  0  0  0  0  0  0  0  0  0  0  0
   -6.4190   11.8960    0.5060 C   0  0  0  0  0  0  0  0  0  0  0  0
   -6.2650   10.9390   -0.4890 C   0  0  0  0  0  0  0  0  0  0  0  0
   -5.6230   13.0400    0.5240 C   0  0  0  0  0  0  0  0  0  0  0  0
   -4.6570   13.2230   -0.4760 C   0  0  0  0  0  0  0  0  0  0  0  0
   -5.3000   11.1260   -1.4760 C   0  0  0  0  0  0  0  0  0  0  0  0
   -5.1080    9.9280   -2.6990 Cl  0  0  0  0  0  0  0  0  0  0  0  0
   -3.6590   14.6990   -0.4480 S   0  0  0  0  0  0  0  0  0  0  0  0
   -4.4900   12.2630   -1.4820 C   0  0  0  0  0  0  0  0  0  0  0  0
   -2.5680   14.4810   -1.7120 N   0  0  0  0  0  0  0  0  0  0  0  0
   -4.5100   15.8160   -0.7830 O   0  0  0  0  0  0  0  0  0  0  0  0
   -2.8700   14.7040    0.7630 O   0  0  0  0  0  0  0  0  0  0  0  0
   -1.7040   13.2790   -1.7710 C   0  0  0  0  0  0  0  0  0  0  0  0
   -0.2790   13.6000   -1.2860 C   0  0  0  0  0  0  0  0  0  0  0  0
    0.7510   12.9300   -2.0630 O   0  0  0  0  0  0  0  0  0  0  0  0
    0.4560   11.7320   -2.6570 C   0  0  0  0  0  0  0  0  0  0  0  0
    0.1320   10.7070   -2.0440 O   0  0  0  0  0  0  0  0  0  0  0  0
    0.5990   11.7690   -4.1030 C   0  0  0  0  0  0  0  0  0  0  0  0
    1.4160   12.6060   -4.8950 C   0  0  0  0  0  0  0  0  0  0  0  0
   -0.0420   10.9680   -5.0310 C   0  0  0  0  0  0  0  0  0  0  0  0
    1.3060   12.3490   -6.2010 N   0  0  0  0  0  0  0  0  0  0  0  0
    0.4050   11.3310   -6.2830 N   0  0  0  0  0  0  0  0  0  0  0  0
    0.0270   10.7550   -7.5330 C   0  0  0  0  0  0  0  0  0  0  0  0
   -1.1260    9.9720   -7.6250 C   0  0  0  0  0  0  0  0  0  0  0  0
    0.7850   10.9460   -8.6800 C   0  0  0  0  0  0  0  0  0  0  0  0
   -1.4940    9.4070   -8.8500 C   0  0  0  0  0  0  0  0  0  0  0  0
    0.4270   10.3880   -9.9000 C   0  0  0  0  0  0  0  0  0  0  0  0
   -0.7190    9.6150   -9.9880 C   0  0  0  0  0  0  0  0  0  0  0  0
  1  2  1  0
  2  3  2  0
  2  4  1  0
  4  5  2  0
  3  6  1  0
  6  7  1  0
  5  8  1  0
  5  9  1  0
  6  9  2  0
  8 10  1  0
  8 11  2  0
  8 12  2  0
 10 13  1  0
 13 14  1  0
 14 15  1  0
 15 16  1  0
 16 17  2  0
 16 18  1  0
 18 19  1  0
 18 20  2  0
 19 21  2  0
 20 22  1  0
 21 22  1  0
 22 23  1  0
 23 24  2  0
 23 25  1  0
 24 26  1  0
 25 27  2  0
 26 28  2  0
 27 28  1  0
M  END
