mac-x0572-mac-x0380
     RDKit          3D

 16 17  0  0  0  0  0  0  0  0999 V2000
   -7.8730   14.5390    3.1850 C   0  0  0  0  0  0  0  0  0  0  0  0
   -7.1510   14.6420    1.8600 C   0  0  0  0  0  0  0  0  0  0  0  0
   -5.7780   14.7130    1.9700 N   0  0  0  0  0  0  0  0  0  0  0  0
   -7.8110   14.6590    0.6910 C   0  0  0  0  0  0  0  0  0  0  0  0
   -9.1810   14.5820    0.5630 O   0  0  0  0  0  0  0  0  0  0  0  0
   -7.0000   14.7760   -0.5540 C   0  0  0  0  0  0  0  0  0  0  0  0
   -5.0480   15.0550    0.9540 C   0  0  0  0  0  0  0  0  0  0  0  0
   -7.4760   14.3700   -1.6100 O   0  0  0  0  0  0  0  0  0  0  0  0
   -5.6310   15.4100   -0.4050 C   0  0  1  0  0  0  0  0  0  0  0  0
   -3.5760   15.0900    1.1150 C   0  0  0  0  0  0  0  0  0  0  0  0
   -2.8150   15.0780    0.0090 C   0  0  0  0  0  0  0  0  0  0  0  0
   -4.6870   15.1890   -1.5380 C   0  0  0  0  0  0  0  0  0  0  0  0
   -3.3710   15.0430   -1.3470 C   0  0  0  0  0  0  0  0  0  0  0  0
   -2.5070   14.8550   -2.5570 C   0  0  0  0  0  0  0  0  0  0  0  0
   -1.2240   14.5420   -2.2890 O   0  0  0  0  0  0  0  0  0  0  0  0
   -2.9370   14.9830   -3.6950 O   0  0  0  0  0  0  0  0  0  0  0  0
  1  2  1  0
  2  3  1  0
  2  4  2  0
  4  5  1  0
  4  6  1  0
  3  7  2  0
  6  8  2  0
  6  9  1  0
  7  9  1  0
  7 10  1  0
 10 11  2  0
  9 12  1  6
 11 13  1  0
 12 13  2  0
 13 14  1  0
 14 15  1  0
 14 16  2  0
M  END
