mac-x0453-mac-x0392
     RDKit          3D

 12 12  0  0  0  0  0  0  0  0999 V2000
   -6.7850   14.1690    2.2870 N   0  0  0  0  0  0  0  0  0  0  0  0
   -5.7280   13.8120    1.3340 C   0  0  0  0  0  0  0  0  0  0  0  0
   -4.4910   14.7310    1.3820 C   0  0  0  0  0  0  0  0  0  0  0  0
   -3.7800   14.7910    0.0700 C   0  0  0  0  0  0  0  0  0  0  0  0
   -2.4280   14.5930   -0.2550 C   0  0  0  0  0  0  0  0  0  0  0  0
   -4.5150   15.0850   -1.0530 N   0  0  0  0  0  0  0  0  0  0  0  0
   -1.3180   14.2890    0.4950 N   0  0  0  0  0  0  0  0  0  0  0  0
   -2.3700   14.7750   -1.6420 N   0  0  0  0  0  0  0  0  0  0  0  0
   -3.6590   15.0650   -2.0400 C   0  0  0  0  0  0  0  0  0  0  0  0
   -1.3050   14.7050   -2.5560 C   0  0  0  0  0  0  0  0  0  0  0  0
   -1.4930   14.5170   -3.7410 O   0  0  0  0  0  0  0  0  0  0  0  0
   -0.0750   14.8770   -2.0210 O   0  0  0  0  0  0  0  0  0  0  0  0
  1  2  1  0
  2  3  1  0
  3  4  1  0
  4  5  2  0
  4  6  1  0
  5  7  1  0
  5  8  1  0
  6  9  2  0
  8  9  1  0
  8 10  1  0
 10 11  2  0
 10 12  1  0
M  END
