mac-x0328-mac-x0451
     RDKit          3D

 14 15  0  0  0  0  0  0  0  0999 V2000
   -1.7970   14.7480   -3.3820 O   0  0  0  0  0  0  0  0  0  0  0  0
   -1.9940   14.7390   -2.0450 C   0  0  0  0  0  0  0  0  0  0  0  0
   -1.0430   14.6330   -1.3010 O   0  0  0  0  0  0  0  0  0  0  0  0
   -3.4390   14.8740   -1.6980 C   0  0  0  0  0  0  0  0  0  0  0  0
   -3.9910   14.8390   -0.3670 C   0  0  0  0  0  0  0  0  0  0  0  0
   -4.3470   15.0440   -2.7650 C   0  0  0  0  0  0  0  0  0  0  0  0
   -5.3790   14.9680   -0.1870 C   0  0  0  0  0  0  0  0  0  0  0  0
   -5.7110   15.1710   -2.5620 C   0  0  0  0  0  0  0  0  0  0  0  0
   -3.3420   14.6570    1.2450 S   0  0  0  0  0  0  0  0  0  0  0  0
   -6.2150   15.1340   -1.2820 C   0  0  0  0  0  0  0  0  0  0  0  0
   -4.9110   14.7570    1.9290 C   0  0  0  0  0  0  0  0  0  0  0  0
   -5.8670   14.9180    1.0950 N   0  0  0  0  0  0  0  0  0  0  0  0
   -7.5630   15.2600   -1.0710 O   0  0  0  0  0  0  0  0  0  0  0  0
   -5.1340   14.6610    3.2360 N   0  0  0  0  0  0  0  0  0  0  0  0
  1  2  1  0
  2  3  2  0
  2  4  1  0
  4  5  2  0
  4  6  1  0
  5  7  1  0
  6  8  2  0
  5  9  1  0
  7 10  2  0
  8 10  1  0
  9 11  1  0
  7 12  1  0
 11 12  2  0
 10 13  1  0
 11 14  1  0
M  END
