mac-x0328-mac-x0584
     RDKit          3D

 28 32  0  0  0  0  0  0  0  0999 V2000
   -3.2430   12.8590   -4.0890 O   0  0  0  0  0  0  0  0  0  0  0  0
   -2.8700   13.6170   -2.9540 C   0  0  0  0  0  0  0  0  0  0  0  0
   -2.2180   12.7270   -2.0650 O   0  0  0  0  0  0  0  0  0  0  0  0
   -4.1090   14.1480   -2.2910 C   0  0  0  0  0  0  0  0  0  0  0  0
   -1.7470   14.4750   -3.4960 C   0  0  2  0  0  0  0  0  0  0  0  0
   -4.3140   13.8410   -0.9270 C   0  0  0  0  0  0  0  0  0  0  0  0
   -5.0650   14.9000   -2.9560 C   0  0  0  0  0  0  0  0  0  0  0  0
   -0.8720   14.9950   -2.5120 N   0  0  0  0  0  0  0  0  0  0  0  0
   -1.8770   15.6280   -4.4700 C   0  0  0  0  0  0  0  0  0  0  0  0
   -5.4540   14.2730   -0.2590 C   0  0  0  0  0  0  0  0  0  0  0  0
   -6.2040   15.3310   -2.2870 C   0  0  0  0  0  0  0  0  0  0  0  0
   -0.3680   15.9650   -4.5230 C   0  0  0  0  0  0  0  0  0  0  0  0
    0.2850   15.0920   -3.3860 C   0  0  2  0  0  0  0  0  0  0  0  0
   -1.0710   14.8080   -1.1420 C   0  0  0  0  0  0  0  0  0  0  0  0
   -6.3930   15.0140   -0.9550 C   0  0  0  0  0  0  0  0  0  0  0  0
    0.5590   13.7010   -3.9930 C   0  0  0  0  0  0  0  0  0  0  0  0
   -0.0800   14.3690   -0.3040 N   0  0  0  0  0  0  0  0  0  0  0  0
   -2.2540   15.0720   -0.5290 C   0  0  0  0  0  0  0  0  0  0  0  0
   -7.5060   15.4150   -0.2970 O   0  0  0  0  0  0  0  0  0  0  0  0
    1.7170   12.8060   -3.4690 C   0  0  0  0  0  0  0  0  0  0  0  0
   -0.3780   12.5550   -3.5050 C   0  0  0  0  0  0  0  0  0  0  0  0
   -0.3220   14.2140    1.0470 C   0  0  0  0  0  0  0  0  0  0  0  0
   -2.3990   14.9240    0.9310 C   0  0  0  0  0  0  0  0  0  0  0  0
   -3.5450   15.5540   -0.9160 C   0  0  0  0  0  0  0  0  0  0  0  0
    0.7720   11.6130   -3.7320 C   0  0  0  0  0  0  0  0  0  0  0  0
   -1.3970   14.4700    1.6970 N   0  0  0  0  0  0  0  0  0  0  0  0
   -3.5620   15.2970    1.3700 N   0  0  0  0  0  0  0  0  0  0  0  0
   -4.2350   15.6760    0.2270 C   0  0  0  0  0  0  0  0  0  0  0  0
  2  1  1  0
  2  3  1  0
  2  4  1  0
  5  2  1  1
  4  6  2  0
  4  7  1  0
  5  8  1  0
  5  9  1  0
  6 10  1  0
  7 11  2  0
  9 12  1  0
  8 13  1  0
 12 13  1  0
  8 14  1  0
 10 15  2  0
 11 15  1  0
 13 16  1  6
 14 17  1  0
 14 18  2  0
 15 19  1  0
 16 20  1  0
 16 21  1  0
 17 22  1  0
 18 23  1  0
 18 24  1  0
 20 25  1  0
 21 25  1  0
 22 26  2  0
 23 26  1  0
 23 27  2  0
 24 28  2  0
 27 28  1  0
M  END
