mac-x0347-diamond-x0900_0_A
     RDKit          3D

 16 17  0  0  0  0  0  0  0  0999 V2000
    1.2890   14.6310   -3.4040 O   0  0  0  0  0  0  0  0  0  0  0  0
    0.4990   14.1150   -2.4500 C   0  0  0  0  0  0  0  0  0  0  0  0
    0.9560   13.4260   -1.5650 O   0  0  0  0  0  0  0  0  0  0  0  0
   -0.9180   14.4840   -2.6260 C   0  0  0  0  0  0  0  0  0  0  0  0
   -1.8320   14.5950   -1.5730 C   0  0  0  0  0  0  0  0  0  0  0  0
   -1.3650   14.7380   -3.9160 C   0  0  0  0  0  0  0  0  0  0  0  0
   -3.1590   14.9590   -1.8570 C   0  0  0  0  0  0  0  0  0  0  0  0
   -2.6380   15.0860   -4.2210 N   0  0  0  0  0  0  0  0  0  0  0  0
   -3.4930   15.1840   -3.1860 C   0  0  0  0  0  0  0  0  0  0  0  0
   -4.2210   15.1190   -0.7980 C   0  0  2  0  0  0  0  0  0  0  0  0
   -3.7350   15.4280    0.5910 C   0  0  0  0  0  0  0  0  0  0  0  0
   -5.2130   13.9630   -0.8090 C   0  0  0  0  0  0  0  0  0  0  0  0
   -4.4690   15.1420    1.6620 C   0  0  0  0  0  0  0  0  0  0  0  0
   -6.2820   14.3310    0.1750 C   0  0  0  0  0  0  0  0  0  0  0  0
   -7.4420   14.5220   -0.1840 O   0  0  0  0  0  0  0  0  0  0  0  0
   -5.8160   14.4770    1.6110 C   0  0  0  0  0  0  0  0  0  0  0  0
  1  2  1  0
  2  3  2  0
  2  4  1  0
  4  5  2  0
  4  6  1  0
  5  7  1  0
  6  8  2  0
  7  9  2  0
  8  9  1  0
 10  7  1  6
 10 11  1  0
 10 12  1  0
 11 13  2  0
 12 14  1  0
 14 15  2  0
 13 16  1  0
 14 16  1  0
M  END
