mac-x0116-mac-x0282
     RDKit          3D

 16 18  0  0  0  0  0  0  0  0999 V2000
   -6.0170   14.6940    1.8080 C   0  0  0  0  0  0  0  0  0  0  0  0
   -4.6110   15.0360    1.7240 N   0  0  0  0  0  0  0  0  0  0  0  0
   -3.8350   14.9680    0.5800 C   0  0  0  0  0  0  0  0  0  0  0  0
   -6.3830   13.2580    1.7640 C   0  0  0  0  0  0  0  0  0  0  0  0
   -6.2920   12.6210    0.5560 O   0  0  0  0  0  0  0  0  0  0  0  0
   -6.8280   12.3850    2.7290 C   0  0  0  0  0  0  0  0  0  0  0  0
   -7.0260   11.1530    2.0830 C   0  0  0  0  0  0  0  0  0  0  0  0
   -6.6860   11.3420    0.7660 C   0  0  0  0  0  0  0  0  0  0  0  0
   -4.3630   15.1240   -0.6870 N   0  0  0  0  0  0  0  0  0  0  0  0
   -2.5140   14.7490    0.6330 C   0  0  0  0  0  0  0  0  0  0  0  0
   -3.6000   15.0200   -1.8150 C   0  0  0  0  0  0  0  0  0  0  0  0
   -1.7470   14.6800   -0.6140 C   0  0  0  0  0  0  0  0  0  0  0  0
   -1.6530   14.5650    1.6700 N   0  0  0  0  0  0  0  0  0  0  0  0
   -2.3210   14.8020   -1.8490 N   0  0  0  0  0  0  0  0  0  0  0  0
   -0.4940   14.5020   -0.3330 N   0  0  0  0  0  0  0  0  0  0  0  0
   -0.5130   14.4440    1.0580 C   0  0  0  0  0  0  0  0  0  0  0  0
  1  2  1  0
  2  3  1  0
  1  4  1  0
  4  5  1  0
  4  6  2  0
  6  7  1  0
  5  8  1  0
  7  8  2  0
  3  9  1  0
  3 10  2  0
  9 11  1  0
 10 12  1  0
 10 13  1  0
 11 14  2  0
 12 14  1  0
 12 15  2  0
 13 16  2  0
 15 16  1  0
M  END
