mac-x0263-mac-x0394
     RDKit          3D

 28 30  0  0  0  0  0  0  0  0999 V2000
  -11.5480   14.3020    2.2300 O   0  0  0  0  0  0  0  0  0  0  0  0
  -10.8890   15.3290    2.7860 C   0  0  0  0  0  0  0  0  0  0  0  0
  -11.4080   15.9720    3.6780 O   0  0  0  0  0  0  0  0  0  0  0  0
   -9.5360   15.5730    2.1900 C   0  0  0  0  0  0  0  0  0  0  0  0
   -8.9440   14.3020    1.6180 C   0  0  0  0  0  0  0  0  0  0  0  0
   -7.6320   14.5420    0.9740 C   0  0  0  0  0  0  0  0  0  0  0  0
   -7.4880   14.7080   -0.3750 N   0  0  0  0  0  0  0  0  0  0  0  0
   -6.4770   14.6230    1.5910 N   0  0  0  0  0  0  0  0  0  0  0  0
   -6.1620   14.8950   -0.6290 C   0  0  0  0  0  0  0  0  0  0  0  0
   -5.5480   14.8400    0.6100 C   0  0  0  0  0  0  0  0  0  0  0  0
   -5.4810   15.0960   -1.8140 C   0  0  0  0  0  0  0  0  0  0  0  0
   -4.1610   14.9980    0.7030 C   0  0  0  0  0  0  0  0  0  0  0  0
   -4.0950   15.2350   -1.7230 C   0  0  0  0  0  0  0  0  0  0  0  0
   -3.4450   15.1920   -0.4820 C   0  0  0  0  0  0  0  0  0  0  0  0
   -3.3280   15.4190   -2.9950 C   0  0  0  0  0  0  0  0  0  0  0  0
   -3.9130   14.7680   -4.2420 C   0  0  0  0  0  0  0  0  0  0  0  0
   -3.1700   15.2350   -5.4850 C   0  0  0  0  0  0  0  0  0  0  0  0
   -1.7020   15.4070   -5.2010 C   0  0  0  0  0  0  0  0  0  0  0  0
   -0.9250   14.2700   -4.9020 C   0  0  0  0  0  0  0  0  0  0  0  0
   -1.0890   16.6530   -5.2220 C   0  0  0  0  0  0  0  0  0  0  0  0
    0.4460   14.3690   -4.6280 C   0  0  0  0  0  0  0  0  0  0  0  0
    0.2680   16.7540   -4.9540 C   0  0  0  0  0  0  0  0  0  0  0  0
    0.9860   18.2920   -5.0000 Cl  0  0  0  0  0  0  0  0  0  0  0  0
    1.2510   13.1310   -4.3080 C   0  0  0  0  0  0  0  0  0  0  0  0
    1.0390   15.6300   -4.6560 C   0  0  0  0  0  0  0  0  0  0  0  0
    0.8740   12.5200   -2.9780 C   0  0  0  0  0  0  0  0  0  0  0  0
    0.3320   11.2890   -3.0790 O   0  0  0  0  0  0  0  0  0  0  0  0
    1.0120   13.0300   -1.8760 O   0  0  0  0  0  0  0  0  0  0  0  0
  1  2  1  0
  2  3  2  0
  2  4  1  0
  4  5  1  0
  5  6  1  0
  6  7  1  0
  6  8  2  0
  7  9  1  0
  8 10  1  0
  9 10  2  0
  9 11  1  0
 10 12  1  0
 11 13  2  0
 12 14  2  0
 13 14  1  0
 13 15  1  0
 15 16  1  0
 16 17  1  0
 17 18  1  0
 18 19  2  0
 18 20  1  0
 19 21  1  0
 20 22  2  0
 22 23  1  0
 21 24  1  0
 21 25  2  0
 22 25  1  0
 24 26  1  0
 26 27  1  0
 26 28  2  0
M  END
