mac-x0213-diamond-x0681_0_A
     RDKit          3D

 24 27  0  0  0  0  0  0  0  0999 V2000
    0.2070   11.4480   -3.0250 O   0  0  0  0  0  0  0  0  0  0  0  0
    0.2220   12.7180   -2.5690 C   0  0  0  0  0  0  0  0  0  0  0  0
    0.4700   12.9060   -1.3810 O   0  0  0  0  0  0  0  0  0  0  0  0
   -0.1160   13.7570   -3.6250 C   0  0  1  0  0  0  0  0  0  0  0  0
   -1.0710   14.8020   -3.0810 C   0  0  2  0  0  0  0  0  0  0  0  0
    1.0160   14.7940   -3.9690 C   0  0  0  0  0  0  0  0  0  0  0  0
   -2.1030   14.5710   -2.0520 N   0  0  0  0  0  0  0  0  0  0  0  0
   -1.1140   15.8400   -4.1590 C   0  0  0  0  0  0  0  0  0  0  0  0
    0.1840   15.8770   -4.6550 C   0  0  0  0  0  0  0  0  0  0  0  0
   -3.3290   14.9880   -1.9950 C   0  0  0  0  0  0  0  0  0  0  0  0
   -2.1120   16.6780   -4.6480 C   0  0  0  0  0  0  0  0  0  0  0  0
    0.5370   16.7940   -5.6230 C   0  0  0  0  0  0  0  0  0  0  0  0
   -3.7800   15.6540   -3.0850 N   0  0  0  0  0  0  0  0  0  0  0  0
   -1.7690   17.6000   -5.6350 C   0  0  0  0  0  0  0  0  0  0  0  0
   -0.4510   17.6680   -6.1120 C   0  0  0  0  0  0  0  0  0  0  0  0
   -4.2900   14.8680   -0.8040 C   0  0  1  0  0  0  0  0  0  0  0  0
   -4.9900   13.5630   -0.6690 C   0  0  0  0  0  0  0  0  0  0  0  0
   -3.6830   15.3860    0.5240 C   0  0  0  0  0  0  0  0  0  0  0  0
   -5.6740   13.3160    0.4680 N   0  0  0  0  0  0  0  0  0  0  0  0
   -4.3460   14.8600    1.7980 C   0  0  0  0  0  0  0  0  0  0  0  0
   -5.0850   12.5470   -1.4970 N   0  0  0  0  0  0  0  0  0  0  0  0
   -5.7250   14.2610    1.5430 C   0  0  0  0  0  0  0  0  0  0  0  0
   -6.2500   12.0930    0.3920 C   0  0  0  0  0  0  0  0  0  0  0  0
   -5.8720   11.6280   -0.8470 C   0  0  0  0  0  0  0  0  0  0  0  0
  1  2  1  0
  2  3  2  0
  4  2  1  1
  4  5  1  0
  4  6  1  0
  5  7  1  6
  5  8  1  0
  6  9  1  0
  8  9  2  0
  7 10  2  3
  8 11  1  0
  9 12  1  0
 10 13  1  0
 11 14  2  0
 12 15  2  0
 14 15  1  0
 16 10  1  6
 16 17  1  0
 16 18  1  0
 17 19  1  0
 18 20  1  0
 17 21  2  0
 19 22  1  0
 20 22  1  0
 19 23  1  0
 21 24  1  0
 23 24  2  0
M  END
