mac-x0572-diamond-x0689_0_A
     RDKit          3D

 21 23  0  0  0  0  0  0  0  0999 V2000
   -8.3100   14.4340    3.0720 C   0  0  0  0  0  0  0  0  0  0  0  0
   -7.7300   14.5930    1.6890 C   0  0  0  0  0  0  0  0  0  0  0  0
   -6.4180   14.8940    1.6810 N   0  0  0  0  0  0  0  0  0  0  0  0
   -8.4440   14.4650    0.5610 C   0  0  0  0  0  0  0  0  0  0  0  0
   -9.7850   14.1720    0.5340 O   0  0  0  0  0  0  0  0  0  0  0  0
   -7.7400   14.6530   -0.7470 C   0  0  0  0  0  0  0  0  0  0  0  0
   -5.7530   14.8220    0.5760 C   0  0  0  0  0  0  0  0  0  0  0  0
   -8.3800   14.9890   -1.7310 O   0  0  0  0  0  0  0  0  0  0  0  0
   -6.2750   14.3910   -0.7420 C   0  0  2  0  0  0  0  0  0  0  0  0
   -4.3870   15.1730    0.6430 C   0  0  0  0  0  0  0  0  0  0  0  0
   -3.9860   15.2070    1.9770 C   0  0  0  0  0  0  0  0  0  0  0  0
   -3.6670   15.4160   -0.4270 C   0  0  0  0  0  0  0  0  0  0  0  0
   -5.4590   14.9240   -1.9030 C   0  0  0  0  0  0  0  0  0  0  0  0
   -2.9570   14.2450    2.1140 N   0  0  0  0  0  0  0  0  0  0  0  0
   -4.2190   15.3930   -1.7340 C   0  0  0  0  0  0  0  0  0  0  0  0
   -1.9580   14.3740    1.2080 C   0  0  0  0  0  0  0  0  0  0  0  0
   -2.1720   13.9900   -0.0590 N   0  0  0  0  0  0  0  0  0  0  0  0
   -0.8460   14.8820    1.6470 N   0  0  0  0  0  0  0  0  0  0  0  0
   -1.1490   14.1580   -0.9170 C   0  0  0  0  0  0  0  0  0  0  0  0
    0.1400   15.0400    0.7680 C   0  0  0  0  0  0  0  0  0  0  0  0
    0.0510   14.6900   -0.5470 C   0  0  0  0  0  0  0  0  0  0  0  0
  1  2  1  0
  2  3  1  0
  2  4  2  0
  4  5  1  0
  4  6  1  0
  3  7  2  0
  6  8  2  0
  6  9  1  0
  7  9  1  0
  7 10  1  0
 10 11  1  0
 10 12  2  0
  9 13  1  6
 11 14  1  0
 12 15  1  0
 13 15  2  0
 14 16  1  0
 16 17  2  0
 16 18  1  0
 17 19  1  0
 18 20  2  0
 19 21  2  0
 20 21  1  0
M  END
