mac-x0231-diamond-x0628_0_A
     RDKit          3D

 23 25  0  0  0  0  0  0  0  0999 V2000
    0.8940   10.9480   -2.7640 O   0  0  0  0  0  0  0  0  0  0  0  0
    1.4000   12.1710   -2.9950 C   0  0  0  0  0  0  0  0  0  0  0  0
    2.2680   12.6400   -2.2950 O   0  0  0  0  0  0  0  0  0  0  0  0
    0.7690   12.8620   -4.1430 C   0  0  2  0  0  0  0  0  0  0  0  0
    0.8630   12.2480   -5.5020 C   0  0  0  0  0  0  0  0  0  0  0  0
    0.7700   14.3230   -4.2960 C   0  0  0  0  0  0  0  0  0  0  0  0
   -0.5460   14.7470   -4.7540 C   0  0  0  0  0  0  0  0  0  0  0  0
    1.7750   15.0980   -4.0660 N   0  0  0  0  0  0  0  0  0  0  0  0
   -0.1780   11.3030   -5.7700 N   0  0  0  0  0  0  0  0  0  0  0  0
   -0.7830   16.0780   -4.8620 C   0  0  0  0  0  0  0  0  0  0  0  0
    1.5390   16.4160   -4.2790 N   0  0  0  0  0  0  0  0  0  0  0  0
   -1.5390   13.8170   -5.0710 C   0  0  0  0  0  0  0  0  0  0  0  0
   -0.0160   10.5090   -6.8260 N   0  0  0  0  0  0  0  0  0  0  0  0
   -1.3750   11.0380   -5.1100 C   0  0  0  0  0  0  0  0  0  0  0  0
   -1.9200   11.7020   -3.8920 C   0  0  0  0  0  0  0  0  0  0  0  0
    0.3120   16.9950   -4.5260 C   0  0  0  0  0  0  0  0  0  0  0  0
   -2.0440   16.5260   -5.2840 C   0  0  0  0  0  0  0  0  0  0  0  0
   -2.7910   14.2380   -5.4890 C   0  0  0  0  0  0  0  0  0  0  0  0
   -1.9750   10.0660   -5.7540 N   0  0  0  0  0  0  0  0  0  0  0  0
   -1.1180    9.7770   -6.7750 C   0  0  0  0  0  0  0  0  0  0  0  0
    0.1300   18.2000   -4.4800 O   0  0  0  0  0  0  0  0  0  0  0  0
   -1.3880    8.7250   -7.7600 C   0  0  0  0  0  0  0  0  0  0  0  0
   -3.0470   15.5970   -5.5940 C   0  0  0  0  0  0  0  0  0  0  0  0
  1  2  1  0
  2  3  2  0
  2  4  1  0
  4  5  1  6
  4  6  1  0
  6  7  1  0
  6  8  2  0
  5  9  1  0
  7 10  2  0
  8 11  1  0
  7 12  1  0
  9 13  1  0
  9 14  1  0
 14 15  1  0
 10 16  1  0
 11 16  1  0
 10 17  1  0
 12 18  2  0
 14 19  2  0
 13 20  2  0
 19 20  1  0
 16 21  2  0
 20 22  1  0
 17 23  2  0
 18 23  1  0
M  END
