mac-x0357-diamond-x0962_1_A
     RDKit          3D

 20 21  0  0  0  0  0  0  0  0999 V2000
    2.5320   12.9690   -4.7770 C   0  0  0  0  0  0  0  0  0  0  0  0
    1.1580   12.3830   -4.9660 C   0  0  0  0  0  0  0  0  0  0  0  0
    0.7770   11.7610   -6.1600 C   0  0  0  0  0  0  0  0  0  0  0  0
    0.2130   12.4420   -3.9330 C   0  0  0  0  0  0  0  0  0  0  0  0
    1.6060   11.6270   -7.2230 O   0  0  0  0  0  0  0  0  0  0  0  0
    0.6030   13.0810   -2.6610 C   0  0  0  0  0  0  0  0  0  0  0  0
   -1.0760   11.8990   -4.0970 C   0  0  0  0  0  0  0  0  0  0  0  0
   -0.4950   11.2220   -6.3330 C   0  0  0  0  0  0  0  0  0  0  0  0
   -0.0590   13.8970   -1.9750 N   0  0  0  0  0  0  0  0  0  0  0  0
    1.8160   12.6690   -2.2870 O   0  0  0  0  0  0  0  0  0  0  0  0
   -1.4240   11.2900   -5.3040 C   0  0  0  0  0  0  0  0  0  0  0  0
   -1.3790   14.3850   -2.2490 C   0  0  0  0  0  0  0  0  0  0  0  0
   -1.8840   14.5390   -0.8290 C   0  0  0  0  0  0  0  0  0  0  0  0
   -3.3000   14.8100   -0.6830 C   0  0  0  0  0  0  0  0  0  0  0  0
   -4.4300   14.8910   -0.3760 C   0  0  0  0  0  0  0  0  0  0  0  0
   -5.7160   14.8110    0.1550 C   0  0  0  0  0  0  0  0  0  0  0  0
   -5.9780   14.5860    1.4800 N   0  0  0  0  0  0  0  0  0  0  0  0
   -6.9420   14.9140   -0.4440 C   0  0  0  0  0  0  0  0  0  0  0  0
   -7.3260   14.5620    1.6300 C   0  0  0  0  0  0  0  0  0  0  0  0
   -7.9430   14.7560    0.4850 N   0  0  0  0  0  0  0  0  0  0  0  0
  1  2  1  0
  2  3  2  0
  2  4  1  0
  3  5  1  0
  4  6  1  0
  4  7  2  0
  3  8  1  0
  6  9  2  3
  6 10  1  0
  7 11  1  0
  8 11  2  0
  9 12  1  0
 12 13  1  0
 13 14  1  0
 14 15  3  0
 15 16  1  0
 16 17  1  0
 16 18  2  0
 17 19  1  0
 18 20  1  0
 19 20  2  0
M  END
