mac-x0455-mac-x0277
     RDKit          3D

 22 23  0  0  0  0  0  0  0  0999 V2000
   -2.2220   13.0940   -1.9290 C   0  0  0  0  0  0  0  0  0  0  0  0
   -1.1710   13.3960   -2.9870 C   0  0  1  0  0  0  0  0  0  0  0  0
   -1.5990   14.6620   -3.5040 O   0  0  0  0  0  0  0  0  0  0  0  0
    0.2940   13.4780   -2.4490 S   0  0  0  0  0  0  0  0  0  0  0  0
   -1.2940   12.4940   -4.1640 C   0  0  0  0  0  0  0  0  0  0  0  0
    0.2500   14.7040   -1.7270 O   0  0  0  0  0  0  0  0  0  0  0  0
    0.5990   11.9460   -2.7700 O   0  0  0  0  0  0  0  0  0  0  0  0
    0.6900   12.7570   -0.8760 O   0  0  0  0  0  0  0  0  0  0  0  0
    1.4350   13.9530   -3.5100 C   0  0  0  0  0  0  0  0  0  0  0  0
   -2.4150   11.7100   -4.3580 C   0  0  0  0  0  0  0  0  0  0  0  0
   -0.2260   12.4590   -5.0570 C   0  0  0  0  0  0  0  0  0  0  0  0
   -2.4770   10.8760   -5.4480 C   0  0  0  0  0  0  0  0  0  0  0  0
   -0.3080   11.6190   -6.1390 C   0  0  0  0  0  0  0  0  0  0  0  0
    0.7340   15.0830   -4.1220 C   0  0  0  0  0  0  0  0  0  0  0  0
   -1.4150   10.8260   -6.3480 C   0  0  0  0  0  0  0  0  0  0  0  0
   -0.5360   14.9370   -4.6050 C   0  0  0  0  0  0  0  0  0  0  0  0
    1.3100   16.2750   -4.1740 C   0  0  0  0  0  0  0  0  0  0  0  0
   -1.1990   16.0330   -5.1130 C   0  0  0  0  0  0  0  0  0  0  0  0
    0.7070   17.3870   -4.6850 C   0  0  0  0  0  0  0  0  0  0  0  0
   -2.8510   15.8290   -5.6830 Cl  0  0  0  0  0  0  0  0  0  0  0  0
   -0.5720   17.2440   -5.1510 C   0  0  0  0  0  0  0  0  0  0  0  0
   -1.4020   18.6320   -5.7860 Cl  0  0  0  0  0  0  0  0  0  0  0  0
  2  1  1  1
  2  3  1  0
  2  4  1  0
  2  5  1  0
  4  6  2  0
  4  7  1  0
  4  8  1  0
  4  9  1  0
  5 10  2  0
  5 11  1  0
 10 12  1  0
 11 13  2  0
  9 14  1  0
 12 15  2  0
 13 15  1  0
 14 16  2  0
 14 17  1  0
 16 18  1  0
 17 19  2  0
 18 20  1  0
 18 21  2  0
 19 21  1  0
 21 22  1  0
M  END
