mac-x0373-mac-x0231
     RDKit          3D

 30 33  0  0  0  0  0  0  0  0999 V2000
    0.2890   12.7000   -1.6420 N   0  0  0  0  0  0  0  0  0  0  0  0
    0.0410   13.9900   -1.9550 C   0  0  0  0  0  0  0  0  0  0  0  0
    0.8010   14.9550   -1.9450 O   0  0  0  0  0  0  0  0  0  0  0  0
    0.7730   11.9380   -2.5460 C   0  0  0  0  0  0  0  0  0  0  0  0
   -1.4390   13.8700   -2.3050 C   0  0  0  0  0  0  0  0  0  0  0  0
    0.8280   10.6160   -2.2510 O   0  0  0  0  0  0  0  0  0  0  0  0
    1.2580   12.3920   -3.9310 C   0  0  0  0  0  0  0  0  0  0  0  0
   -1.8350   12.8520   -3.3730 C   0  0  0  0  0  0  0  0  0  0  0  0
   -2.5410   14.5950   -1.5780 C   0  0  0  0  0  0  0  0  0  0  0  0
    0.9680   13.8590   -4.2680 C   0  0  0  0  0  0  0  0  0  0  0  0
   -1.1100   12.6050   -4.5570 C   0  0  0  0  0  0  0  0  0  0  0  0
   -2.9890   12.0970   -3.1380 C   0  0  0  0  0  0  0  0  0  0  0  0
   -3.6710   15.1480   -2.1850 C   0  0  0  0  0  0  0  0  0  0  0  0
   -2.3880   14.6710   -0.1880 C   0  0  0  0  0  0  0  0  0  0  0  0
   -0.3830   14.2940   -4.7300 C   0  0  0  0  0  0  0  0  0  0  0  0
    1.9540   14.7030   -4.1030 N   0  0  0  0  0  0  0  0  0  0  0  0
   -1.5300   11.6310   -5.4710 C   0  0  0  0  0  0  0  0  0  0  0  0
   -3.4070   11.1290   -4.0470 C   0  0  0  0  0  0  0  0  0  0  0  0
   -4.6350   15.7570   -1.3920 C   0  0  0  0  0  0  0  0  0  0  0  0
   -3.3470   15.2810    0.5900 C   0  0  0  0  0  0  0  0  0  0  0  0
   -0.6240   15.6600   -4.8320 C   0  0  0  0  0  0  0  0  0  0  0  0
    1.7070   16.0170   -4.3670 N   0  0  0  0  0  0  0  0  0  0  0  0
   -1.4150   13.4120   -5.0570 C   0  0  0  0  0  0  0  0  0  0  0  0
   -2.6800   10.8940   -5.2120 C   0  0  0  0  0  0  0  0  0  0  0  0
   -4.4640   15.8160   -0.0150 C   0  0  0  0  0  0  0  0  0  0  0  0
    0.4650   16.5890   -4.5150 C   0  0  0  0  0  0  0  0  0  0  0  0
   -1.8790   16.1450   -5.2320 C   0  0  0  0  0  0  0  0  0  0  0  0
   -2.6690   13.8890   -5.4640 C   0  0  0  0  0  0  0  0  0  0  0  0
    0.2670   17.7950   -4.4060 O   0  0  0  0  0  0  0  0  0  0  0  0
   -2.9050   15.2530   -5.5460 C   0  0  0  0  0  0  0  0  0  0  0  0
  1  2  1  0
  2  3  2  0
  1  4  2  3
  2  5  1  0
  4  6  1  0
  4  7  1  0
  5  8  1  0
  5  9  1  0
  7 10  1  0
  8 11  2  0
  8 12  1  0
  9 13  2  0
  9 14  1  0
 10 15  1  0
 10 16  2  0
 11 17  1  0
 12 18  2  0
 13 19  1  0
 14 20  2  0
 15 21  2  0
 16 22  1  0
 15 23  1  0
 17 24  2  0
 18 24  1  0
 19 25  2  0
 20 25  1  0
 21 26  1  0
 22 26  1  0
 21 27  1  0
 23 28  2  0
 26 29  2  0
 27 30  2  0
 28 30  1  0
M  END
