mac-x0436-mac-x0277
     RDKit          3D

 24 26  0  0  0  0  0  0  0  0999 V2000
    0.4800   11.2460   -3.1640 O   0  0  0  0  0  0  0  0  0  0  0  0
    0.9740   12.4770   -2.9330 C   0  0  0  0  0  0  0  0  0  0  0  0
    1.1110   12.8520   -1.7810 O   0  0  0  0  0  0  0  0  0  0  0  0
    1.3270   13.2740   -4.1930 C   0  0  1  0  0  0  0  0  0  0  0  0
    1.0710   12.6240   -5.5400 C   0  0  0  0  0  0  0  0  0  0  0  0
    0.6540   14.6050   -4.4000 C   0  0  0  0  0  0  0  0  0  0  0  0
   -0.0220   11.5970   -5.7000 C   0  0  0  0  0  0  0  0  0  0  0  0
   -0.6950   14.6380   -4.7690 C   0  0  0  0  0  0  0  0  0  0  0  0
    1.3440   15.8010   -4.2570 C   0  0  0  0  0  0  0  0  0  0  0  0
   -1.2910   11.4820   -4.8220 C   0  0  0  0  0  0  0  0  0  0  0  0
    0.2120   10.8020   -6.6800 N   0  0  0  0  0  0  0  0  0  0  0  0
   -1.3390   15.8470   -5.0000 C   0  0  0  0  0  0  0  0  0  0  0  0
    0.7060   17.0180   -4.4900 C   0  0  0  0  0  0  0  0  0  0  0  0
   -1.4970   12.2140   -3.8640 O   0  0  0  0  0  0  0  0  0  0  0  0
   -3.0030   15.7980   -5.4530 Cl  0  0  0  0  0  0  0  0  0  0  0  0
   -2.1700   10.4860   -5.2060 N   0  0  0  0  0  0  0  0  0  0  0  0
   -0.6730    9.7870   -6.9620 C   0  0  0  0  0  0  0  0  0  0  0  0
   -0.6360   17.0390   -4.8650 C   0  0  0  0  0  0  0  0  0  0  0  0
   -1.3790   18.5650   -5.1590 Cl  0  0  0  0  0  0  0  0  0  0  0  0
   -1.8590    9.6010   -6.2500 C   0  0  0  0  0  0  0  0  0  0  0  0
   -0.3390    8.9290   -7.9990 C   0  0  0  0  0  0  0  0  0  0  0  0
   -1.1830    7.8780   -8.3330 C   0  0  0  0  0  0  0  0  0  0  0  0
   -2.7140    8.5510   -6.5750 C   0  0  0  0  0  0  0  0  0  0  0  0
   -2.3700    7.6890   -7.6210 C   0  0  0  0  0  0  0  0  0  0  0  0
  1  2  1  0
  2  3  2  0
  2  4  1  0
  4  5  1  6
  4  6  1  0
  5  7  1  0
  6  8  2  0
  6  9  1  0
  7 10  1  0
  7 11  2  0
  8 12  1  0
  9 13  2  0
 10 14  2  0
 12 15  1  0
 10 16  1  0
 11 17  1  0
 12 18  2  0
 13 18  1  0
 18 19  1  0
 16 20  1  0
 17 20  2  0
 17 21  1  0
 21 22  2  0
 20 23  1  0
 22 24  1  0
 23 24  2  0
M  END
