mac-x0284-diamond-x0969_0_A
     RDKit          3D

 19 21  0  0  0  0  0  0  0  0999 V2000
   -3.0510   16.1420    0.1390 C   0  0  0  0  0  0  0  0  0  0  0  0
   -3.1030   14.7200   -0.3140 C   0  0  1  0  0  0  0  0  0  0  0  0
   -4.2280   14.4690   -1.3340 C   0  0  2  0  0  0  0  0  0  0  0  0
   -1.7230   14.3840   -0.8520 C   0  0  0  0  0  0  0  0  0  0  0  0
   -3.4100   14.0990    0.9780 C   0  0  0  0  0  0  0  0  0  0  0  0
   -1.3360   15.1880   -2.0740 C   0  0  1  0  0  0  0  0  0  0  0  0
   -3.8850   15.0730   -2.7440 C   0  0  0  0  0  0  0  0  0  0  0  0
   -5.6030   14.9810   -0.7760 C   0  0  1  0  0  0  0  0  0  0  0  0
   -4.6340   14.2610    1.4020 C   0  0  0  0  0  0  0  0  0  0  0  0
    0.0060   14.6630   -2.5200 C   0  0  0  0  0  0  0  0  0  0  0  0
   -2.4020   15.2180   -3.1790 C   0  0  2  0  0  0  0  0  0  0  0  0
   -6.8360   14.3090   -1.2780 N   0  0  0  0  0  0  0  0  0  0  0  0
   -5.5990   14.9460    0.7110 N   0  0  0  0  0  0  0  0  0  0  0  0
   -2.1240   14.2910   -4.2290 O   0  0  0  0  0  0  0  0  0  0  0  0
    0.9820   14.5030   -1.8080 O   0  0  0  0  0  0  0  0  0  0  0  0
    0.0560   14.3620   -3.8260 O   0  0  0  0  0  0  0  0  0  0  0  0
   -6.9810   14.6070    0.9860 C   0  0  1  0  0  0  0  0  0  0  0  0
   -7.3960   13.6690   -0.0290 N   0  0  0  0  0  0  0  0  0  0  0  0
   -7.3440   14.0220    2.2620 N   0  0  0  0  0  0  0  0  0  0  0  0
  2  1  1  1
  2  3  1  0
  2  4  1  0
  2  5  1  0
  4  6  1  0
  3  7  1  6
  3  8  1  0
  5  9  2  0
  6 10  1  6
  6 11  1  0
  7 11  1  0
  8 12  1  6
  8 13  1  0
  9 13  1  0
 11 14  1  6
 10 15  2  0
 10 16  1  0
 13 17  1  0
 12 18  1  0
 17 18  1  0
 17 19  1  1
M  END
