mac-x0124-mac-x0387
     RDKit          3D

 11 12  0  0  0  0  0  0  0  0999 V2000
   -0.1600   14.6910   -3.2040 C   0  0  0  0  0  0  0  0  0  0  0  0
   -1.3110   14.7960   -2.3460 N   0  0  0  0  0  0  0  0  0  0  0  0
   -2.6160   14.9590   -2.7480 C   0  0  0  0  0  0  0  0  0  0  0  0
   -1.2490   14.7520   -0.9780 C   0  0  0  0  0  0  0  0  0  0  0  0
   -3.4000   15.0250   -1.6150 C   0  0  0  0  0  0  0  0  0  0  0  0
   -2.5390   14.8930   -0.4880 C   0  0  0  0  0  0  0  0  0  0  0  0
   -0.1300   14.6030   -0.2560 N   0  0  0  0  0  0  0  0  0  0  0  0
   -2.6910   14.8800    0.9010 C   0  0  0  0  0  0  0  0  0  0  0  0
   -0.4070   14.5940    1.0650 C   0  0  0  0  0  0  0  0  0  0  0  0
   -3.9250   15.0370    1.5120 N   0  0  0  0  0  0  0  0  0  0  0  0
   -1.6040   14.7140    1.6760 N   0  0  0  0  0  0  0  0  0  0  0  0
  1  2  1  0
  2  3  1  0
  2  4  1  0
  3  5  2  0
  4  6  2  0
  5  6  1  0
  4  7  1  0
  6  8  1  0
  7  9  2  0
  8 10  1  0
  8 11  2  0
  9 11  1  0
M  END
