mac-x0546-mac-x0319
     RDKit          3D

 16 17  0  0  0  0  0  0  0  0999 V2000
   -4.7090   15.0110   -5.8990 C   0  0  0  0  0  0  0  0  0  0  0  0
   -3.9230   16.1750   -6.1050 O   0  0  0  0  0  0  0  0  0  0  0  0
   -2.6520   16.1540   -5.6260 C   0  0  0  0  0  0  0  0  0  0  0  0
   -1.8960   15.0040   -5.3220 C   0  0  0  0  0  0  0  0  0  0  0  0
   -2.1240   17.4260   -5.4530 C   0  0  0  0  0  0  0  0  0  0  0  0
   -0.5850   15.1660   -4.8330 C   0  0  0  0  0  0  0  0  0  0  0  0
   -0.8630   17.6040   -4.9670 C   0  0  0  0  0  0  0  0  0  0  0  0
   -0.1540   16.4650   -4.6770 C   0  0  0  0  0  0  0  0  0  0  0  0
    0.5010   14.3020   -4.4230 C   0  0  0  0  0  0  0  0  0  0  0  0
    0.5240   12.7980   -4.4150 C   0  0  0  0  0  0  0  0  0  0  0  0
    1.0480   16.4300   -4.1990 N   0  0  0  0  0  0  0  0  0  0  0  0
    1.5260   15.1640   -4.0270 C   0  0  0  0  0  0  0  0  0  0  0  0
    0.5130   12.2080   -3.0210 C   0  0  0  0  0  0  0  0  0  0  0  0
    1.6120   17.6450   -3.9470 O   0  0  0  0  0  0  0  0  0  0  0  0
    0.9290   12.7000   -1.9900 O   0  0  0  0  0  0  0  0  0  0  0  0
   -0.0440   10.9740   -2.9850 O   0  0  0  0  0  0  0  0  0  0  0  0
  1  2  1  0
  2  3  1  0
  3  4  2  0
  3  5  1  0
  4  6  1  0
  5  7  2  0
  6  8  2  0
  7  8  1  0
  6  9  1  0
  9 10  1  0
  8 11  1  0
  9 12  2  0
 11 12  1  0
 10 13  1  0
 11 14  1  0
 13 15  2  0
 13 16  1  0
M  END
