mac-x0231-mac-x0347
     RDKit          3D

 29 32  0  0  0  0  0  0  0  0999 V2000
    0.8400   10.6130   -2.7990 O   0  0  0  0  0  0  0  0  0  0  0  0
    0.9270   11.9380   -2.9850 C   0  0  0  0  0  0  0  0  0  0  0  0
    0.5780   12.6380   -1.9920 N   0  0  0  0  0  0  0  0  0  0  0  0
    1.3970   12.3990   -4.3400 C   0  0  0  0  0  0  0  0  0  0  0  0
    0.5500   14.0740   -2.1650 C   0  0  2  0  0  0  0  0  0  0  0  0
    1.0680   13.8510   -4.5880 C   0  0  0  0  0  0  0  0  0  0  0  0
    1.3430   14.8780   -1.3170 O   0  0  0  0  0  0  0  0  0  0  0  0
   -0.3260   14.1930   -4.9660 C   0  0  0  0  0  0  0  0  0  0  0  0
    1.9980   14.7500   -4.4240 N   0  0  0  0  0  0  0  0  0  0  0  0
   -0.9030   14.4920   -2.2980 C   0  0  0  0  0  0  0  0  0  0  0  0
   -0.6530   15.5500   -5.0600 C   0  0  0  0  0  0  0  0  0  0  0  0
    1.6630   16.0560   -4.6160 N   0  0  0  0  0  0  0  0  0  0  0  0
   -1.3040   13.2150   -5.2150 C   0  0  0  0  0  0  0  0  0  0  0  0
   -1.8170   14.4380   -1.2530 C   0  0  0  0  0  0  0  0  0  0  0  0
   -1.4010   14.9430   -3.5050 C   0  0  0  0  0  0  0  0  0  0  0  0
    0.3950   16.5560   -4.7980 C   0  0  0  0  0  0  0  0  0  0  0  0
   -1.9690   15.9390   -5.4000 C   0  0  0  0  0  0  0  0  0  0  0  0
   -2.6090   13.5990   -5.5540 C   0  0  0  0  0  0  0  0  0  0  0  0
   -3.1480   14.8140   -1.4470 C   0  0  0  0  0  0  0  0  0  0  0  0
   -2.6810   15.3210   -3.7390 N   0  0  0  0  0  0  0  0  0  0  0  0
    0.1390   17.7570   -4.7530 O   0  0  0  0  0  0  0  0  0  0  0  0
   -2.9450   14.9580   -5.6470 C   0  0  0  0  0  0  0  0  0  0  0  0
   -3.5200   15.2440   -2.7040 C   0  0  0  0  0  0  0  0  0  0  0  0
   -4.1010   14.7500   -0.3690 C   0  0  0  0  0  0  0  0  0  0  0  0
   -3.8220   15.3520    0.8600 C   0  0  0  0  0  0  0  0  0  0  0  0
   -5.3180   14.0820   -0.5440 C   0  0  0  0  0  0  0  0  0  0  0  0
   -4.7390   15.2920    1.8950 C   0  0  0  0  0  0  0  0  0  0  0  0
   -6.2430   14.0200    0.4930 C   0  0  0  0  0  0  0  0  0  0  0  0
   -5.9530   14.6240    1.7090 C   0  0  0  0  0  0  0  0  0  0  0  0
  1  2  1  0
  2  3  2  3
  2  4  1  0
  3  5  1  0
  4  6  1  0
  5  7  1  1
  6  8  1  0
  6  9  2  0
  5 10  1  0
  8 11  2  0
  9 12  1  0
  8 13  1  0
 10 14  2  0
 10 15  1  0
 11 16  1  0
 12 16  1  0
 11 17  1  0
 13 18  2  0
 14 19  1  0
 15 20  2  0
 16 21  2  0
 17 22  2  0
 18 22  1  0
 19 23  2  0
 20 23  1  0
 19 24  1  0
 24 25  2  0
 24 26  1  0
 25 27  1  0
 26 28  2  0
 27 29  2  0
 28 29  1  0
M  END
