mac-x0115-mac-x0402
     RDKit          3D

 23 25  0  0  0  0  0  0  0  0999 V2000
   -1.4150   18.5260   -5.1350 C   0  0  0  0  0  0  0  0  0  0  0  0
   -0.3850   17.6120   -5.7640 C   0  0  0  0  0  0  0  0  0  0  0  0
    1.0150   18.1640   -5.5950 C   0  0  0  0  0  0  0  0  0  0  0  0
   -0.5280   16.3350   -5.1280 O   0  0  0  0  0  0  0  0  0  0  0  0
    0.6900   15.7690   -4.6210 C   0  0  0  0  0  0  0  0  0  0  0  0
    0.3850   14.4110   -3.9540 C   0  0  0  0  0  0  0  0  0  0  0  0
    0.0250   14.4950   -2.5150 N   0  0  0  0  0  0  0  0  0  0  0  0
    1.0500   14.3530   -1.5710 C   0  0  0  0  0  0  0  0  0  0  0  0
   -1.3870   14.4780   -2.0720 C   0  0  1  0  0  0  0  0  0  0  0  0
    2.6430   13.9750   -1.9140 S   0  0  0  0  0  0  0  0  0  0  0  0
    0.7050   14.5500   -0.2570 N   0  0  0  0  0  0  0  0  0  0  0  0
   -1.6610   14.1020   -0.6000 C   0  0  1  0  0  0  0  0  0  0  0  0
   -2.4590   15.4980   -2.4440 C   0  0  1  0  0  0  0  0  0  0  0  0
   -3.5130   15.0840   -3.7840 Cl  0  0  0  0  0  0  0  0  0  0  0  0
   -0.5540   14.5910    0.2920 C   0  0  0  0  0  0  0  0  0  0  0  0
   -3.0930   14.5780   -0.2500 C   0  0  1  0  0  0  0  0  0  0  0  0
   -3.2190   15.8130   -1.1380 C   0  0  0  0  0  0  0  0  0  0  0  0
   -0.7520   14.9830    1.4320 O   0  0  0  0  0  0  0  0  0  0  0  0
   -4.3080   13.6470   -0.4460 C   0  0  0  0  0  0  0  0  0  0  0  0
   -3.3420   14.9780    1.5120 S   0  0  0  0  0  0  0  0  0  0  0  0
   -5.0740   15.1830    1.1870 C   0  0  1  0  0  0  0  0  0  0  0  0
   -5.5010   14.1460    0.2990 N   0  0  0  0  0  0  0  0  0  0  0  0
   -5.8670   14.9890    2.3670 N   0  0  0  0  0  0  0  0  0  0  0  0
  1  2  1  0
  2  3  1  0
  2  4  1  0
  4  5  1  0
  5  6  1  0
  6  7  1  0
  7  8  1  0
  9  7  1  1
  8 10  2  0
  8 11  1  0
  9 12  1  0
  9 13  1  0
 13 14  1  6
 11 15  1  0
 12 15  1  1
 12 16  1  0
 13 17  1  0
 16 17  1  6
 15 18  2  0
 16 19  1  0
 16 20  1  0
 20 21  1  0
 19 22  1  0
 21 22  1  0
 21 23  1  1
M  END
