mac-x0277-diamond-x0574_0_A
     RDKit          3D

 26 28  0  0  0  0  0  0  0  0999 V2000
   -1.3230   18.4340   -5.1800 Cl  0  0  0  0  0  0  0  0  0  0  0  0
   -0.6410   16.8610   -5.0270 C   0  0  0  0  0  0  0  0  0  0  0  0
   -1.4130   15.7020   -5.1350 C   0  0  0  0  0  0  0  0  0  0  0  0
    0.7290   16.7570   -4.7900 C   0  0  0  0  0  0  0  0  0  0  0  0
   -3.1100   15.7450   -5.4270 Cl  0  0  0  0  0  0  0  0  0  0  0  0
   -0.8210   14.4500   -5.0150 C   0  0  0  0  0  0  0  0  0  0  0  0
    1.3190   15.4990   -4.6660 C   0  0  0  0  0  0  0  0  0  0  0  0
    0.5480   14.3320   -4.7810 C   0  0  0  0  0  0  0  0  0  0  0  0
    1.1710   12.9710   -4.6400 C   0  0  0  0  0  0  0  0  0  0  0  0
    1.2890   12.8690   -3.1700 C   0  0  0  0  0  0  0  0  0  0  0  0
    0.8540   11.7050   -2.6310 O   0  0  0  0  0  0  0  0  0  0  0  0
    1.7570   13.9290   -2.6210 N   0  0  0  0  0  0  0  0  0  0  0  0
    1.9340   14.1660   -1.2190 C   0  0  0  0  0  0  0  0  0  0  0  0
    0.6280   13.6730   -0.6010 C   0  0  0  0  0  0  0  0  0  0  0  0
    0.2490   14.1830    0.7340 N   0  0  0  0  0  0  0  0  0  0  0  0
   -1.0340   14.3800    0.6900 C   0  0  0  0  0  0  0  0  0  0  0  0
   -1.9560   14.3890    1.6170 N   0  0  0  0  0  0  0  0  0  0  0  0
   -1.4910   14.6470   -0.9200 S   0  0  0  0  0  0  0  0  0  0  0  0
   -3.1650   14.6120    0.9490 C   0  0  0  0  0  0  0  0  0  0  0  0
   -3.0860   14.7840   -0.4350 C   0  0  0  0  0  0  0  0  0  0  0  0
   -4.4420   14.6770    1.5050 C   0  0  0  0  0  0  0  0  0  0  0  0
   -4.1770   15.0230   -1.2570 C   0  0  0  0  0  0  0  0  0  0  0  0
   -5.5570   14.8970    0.7030 C   0  0  0  0  0  0  0  0  0  0  0  0
   -5.4210   15.0760   -0.6640 C   0  0  0  0  0  0  0  0  0  0  0  0
   -6.8450   14.9570    1.1430 O   0  0  0  0  0  0  0  0  0  0  0  0
   -7.0430   14.6670    2.5200 C   0  0  0  0  0  0  0  0  0  0  0  0
  1  2  1  0
  2  3  2  0
  2  4  1  0
  3  5  1  0
  3  6  1  0
  4  7  2  0
  6  8  2  0
  7  8  1  0
  8  9  1  0
  9 10  1  0
 10 11  1  0
 10 12  2  3
 12 13  1  0
 13 14  1  0
 14 15  1  0
 15 16  1  0
 16 17  2  0
 16 18  1  0
 17 19  1  0
 18 20  1  0
 19 20  2  0
 19 21  1  0
 20 22  1  0
 21 23  2  0
 22 24  2  0
 23 24  1  0
 23 25  1  0
 25 26  1  0
M  END
