mac-x0436-diamond-x0421_0_A
     RDKit          3D

 29 32  0  0  0  0  0  0  0  0999 V2000
    0.5850   11.2240   -3.1300 O   0  0  0  0  0  0  0  0  0  0  0  0
    1.3440   12.3310   -3.0710 C   0  0  0  0  0  0  0  0  0  0  0  0
    1.6390   12.8020   -1.9880 O   0  0  0  0  0  0  0  0  0  0  0  0
    1.7590   12.8920   -4.4140 C   0  0  0  0  0  0  0  0  0  0  0  0
    0.5870   13.1510   -5.3620 C   0  0  0  0  0  0  0  0  0  0  0  0
   -0.2460   11.9170   -5.6580 C   0  0  0  0  0  0  0  0  0  0  0  0
   -1.5300   11.6280   -4.8360 C   0  0  0  0  0  0  0  0  0  0  0  0
    0.1460   11.1360   -6.6160 N   0  0  0  0  0  0  0  0  0  0  0  0
   -1.7590   12.4560   -3.8780 N   0  0  0  0  0  0  0  0  0  0  0  0
   -2.2770   10.5350   -5.2140 N   0  0  0  0  0  0  0  0  0  0  0  0
   -0.6140    9.9980   -6.9120 C   0  0  0  0  0  0  0  0  0  0  0  0
   -0.7920   13.5430   -3.6850 C   0  0  0  0  0  0  0  0  0  0  0  0
   -1.8080    9.6860   -6.2320 C   0  0  0  0  0  0  0  0  0  0  0  0
   -0.1490    9.1580   -7.9230 C   0  0  0  0  0  0  0  0  0  0  0  0
   -1.4430   14.8880   -3.4360 C   0  0  0  0  0  0  0  0  0  0  0  0
   -0.8580    8.0090   -8.2690 C   0  0  0  0  0  0  0  0  0  0  0  0
   -2.5130    8.5300   -6.5860 C   0  0  0  0  0  0  0  0  0  0  0  0
   -1.9360   14.8500   -2.0730 N   0  0  0  0  0  0  0  0  0  0  0  0
   -2.0400    7.6960   -7.6000 C   0  0  0  0  0  0  0  0  0  0  0  0
   -3.1820   15.0360   -1.9450 C   0  0  0  0  0  0  0  0  0  0  0  0
   -4.1080   15.2740   -2.9200 N   0  0  0  0  0  0  0  0  0  0  0  0
   -3.7170   14.9850   -0.5980 C   0  0  0  0  0  0  0  0  0  0  0  0
   -3.0170   15.0760    0.5910 C   0  0  0  0  0  0  0  0  0  0  0  0
   -5.0640   14.8260   -0.3410 N   0  0  0  0  0  0  0  0  0  0  0  0
   -3.9600   14.9670    1.5560 N   0  0  0  0  0  0  0  0  0  0  0  0
   -5.1670   14.8160    0.9590 C   0  0  0  0  0  0  0  0  0  0  0  0
   -6.5000   14.6490    1.7320 C   0  0  0  0  0  0  0  0  0  0  0  0
   -7.8010   14.6440    0.9780 C   0  0  0  0  0  0  0  0  0  0  0  0
   -7.2660   13.3690    1.5590 C   0  0  0  0  0  0  0  0  0  0  0  0
  1  2  1  0
  2  3  2  0
  2  4  1  0
  4  5  1  0
  5  6  1  0
  6  7  1  0
  6  8  2  0
  7  9  2  3
  7 10  1  0
  8 11  1  0
  9 12  1  0
 10 13  1  0
 11 13  2  0
 11 14  1  0
 12 15  1  0
 14 16  2  0
 13 17  1  0
 15 18  1  0
 16 19  1  0
 17 19  2  0
 18 20  2  3
 20 21  1  0
 20 22  1  0
 22 23  2  0
 22 24  1  0
 23 25  1  0
 24 26  2  0
 25 26  1  0
 26 27  1  0
 27 28  1  0
 27 29  1  0
 28 29  1  0
M  END
