mac-x0345-diamond-x0471_0_A
     RDKit          3D

 21 23  0  0  0  0  0  0  0  0999 V2000
   -3.9730   15.5640   -3.0370 N   0  0  0  0  0  0  0  0  0  0  0  0
   -5.0840   14.7840   -2.6100 C   0  0  1  0  0  0  0  0  0  0  0  0
   -4.6170   13.7270   -1.6360 C   0  0  0  0  0  0  0  0  0  0  0  0
   -6.0230   15.7070   -2.0650 N   0  0  0  0  0  0  0  0  0  0  0  0
   -6.8290   14.9920   -1.0980 C   0  0  1  0  0  0  0  0  0  0  0  0
   -5.0610   13.5760   -0.3470 C   0  0  0  0  0  0  0  0  0  0  0  0
   -6.0650   14.5280    0.2070 C   0  0  1  0  0  0  0  0  0  0  0  0
   -8.1510   15.6060   -0.6400 C   0  0  2  0  0  0  0  0  0  0  0  0
   -7.3800   13.8150   -1.9850 C   0  0  0  0  0  0  0  0  0  0  0  0
   -4.6800   15.5290    1.2090 Br  0  0  0  0  0  0  0  0  0  0  0  0
   -8.8600   13.8190   -1.9540 N   0  0  0  0  0  0  0  0  0  0  0  0
   -7.2540   14.0260    1.0030 N   0  0  0  0  0  0  0  0  0  0  0  0
   -8.4210   14.9000    0.6890 C   0  0  0  0  0  0  0  0  0  0  0  0
   -9.1680   15.2210   -1.6910 C   0  0  0  0  0  0  0  0  0  0  0  0
   -7.1360   13.9320    2.4430 C   0  0  0  0  0  0  0  0  0  0  0  0
   -8.4910   13.9330    2.9560 N   0  0  0  0  0  0  0  0  0  0  0  0
   -9.0020   15.0020    3.6730 C   0  0  0  0  0  0  0  0  0  0  0  0
   -9.3060   16.0630    3.1400 O   0  0  0  0  0  0  0  0  0  0  0  0
   -9.2050   14.7740    5.1760 C   0  0  0  0  0  0  0  0  0  0  0  0
   -9.5770   13.3320    5.5220 C   0  0  0  0  0  0  0  0  0  0  0  0
   -7.9900   15.2380    5.9740 C   0  0  0  0  0  0  0  0  0  0  0  0
  2  1  1  1
  2  3  1  0
  2  4  1  0
  5  4  1  0
  3  6  2  0
  5  7  1  0
  6  7  1  0
  5  8  1  0
  5  9  1  6
  7 10  1  1
  9 11  1  0
  7 12  1  0
  8 13  1  1
 12 13  1  0
  8 14  1  0
 11 14  1  0
 12 15  1  0
 15 16  1  0
 16 17  1  0
 17 18  2  0
 17 19  1  0
 19 20  1  0
 19 21  1  0
M  END
