mac-x0357-mac-x0338
     RDKit          3D

 21 22  0  0  0  0  0  0  0  0999 V2000
    2.4140   13.1980   -4.4680 C   0  0  0  0  0  0  0  0  0  0  0  0
    1.0770   12.5610   -4.7610 C   0  0  0  0  0  0  0  0  0  0  0  0
    0.8710   11.9160   -5.9870 C   0  0  0  0  0  0  0  0  0  0  0  0
    0.0070   12.5840   -3.8360 C   0  0  0  0  0  0  0  0  0  0  0  0
    1.8960   11.8800   -6.8780 O   0  0  0  0  0  0  0  0  0  0  0  0
    0.1020   13.2390   -2.4970 C   0  0  0  0  0  0  0  0  0  0  0  0
   -1.2140   11.9610   -4.1770 C   0  0  0  0  0  0  0  0  0  0  0  0
   -0.3370   11.3050   -6.3190 C   0  0  0  0  0  0  0  0  0  0  0  0
   -0.7020   14.1470   -2.0500 N   0  0  0  0  0  0  0  0  0  0  0  0
    1.1520   12.7500   -1.8100 O   0  0  0  0  0  0  0  0  0  0  0  0
   -1.3820   11.3300   -5.4070 C   0  0  0  0  0  0  0  0  0  0  0  0
   -1.8130   14.6230   -2.8670 C   0  0  0  0  0  0  0  0  0  0  0  0
   -3.1650   14.8140   -2.2000 C   0  0  0  0  0  0  0  0  0  0  0  0
   -3.3080   14.8750   -0.8280 N   0  0  0  0  0  0  0  0  0  0  0  0
   -4.2590   14.9210   -3.0370 C   0  0  0  0  0  0  0  0  0  0  0  0
   -4.6040   15.0490   -0.3980 C   0  0  0  0  0  0  0  0  0  0  0  0
   -5.5200   15.0900   -2.6030 N   0  0  0  0  0  0  0  0  0  0  0  0
   -4.8910   15.1220    1.0550 C   0  0  0  0  0  0  0  0  0  0  0  0
   -5.6670   15.1530   -1.2690 C   0  0  0  0  0  0  0  0  0  0  0  0
   -3.8560   15.2710    1.9220 N   0  0  0  0  0  0  0  0  0  0  0  0
   -6.0420   15.0340    1.4730 O   0  0  0  0  0  0  0  0  0  0  0  0
  1  2  1  0
  2  3  2  0
  2  4  1  0
  3  5  1  0
  4  6  1  0
  4  7  2  0
  3  8  1  0
  6  9  2  3
  6 10  1  0
  7 11  1  0
  8 11  2  0
  9 12  1  0
 12 13  1  0
 13 14  2  0
 13 15  1  0
 14 16  1  0
 15 17  2  0
 16 18  1  0
 16 19  2  0
 17 19  1  0
 18 20  1  0
 18 21  2  0
M  END
