mac-x0572-mac-x0451
     RDKit          3D

 14 15  0  0  0  0  0  0  0  0999 V2000
   -7.9460   14.7020    3.3170 C   0  0  0  0  0  0  0  0  0  0  0  0
   -7.2050   14.7500    2.0050 C   0  0  0  0  0  0  0  0  0  0  0  0
   -5.8490   14.9880    2.1420 N   0  0  0  0  0  0  0  0  0  0  0  0
   -7.8290   14.5850    0.8250 C   0  0  0  0  0  0  0  0  0  0  0  0
   -9.1820   14.3570    0.6800 O   0  0  0  0  0  0  0  0  0  0  0  0
   -6.9930   14.6550   -0.4050 C   0  0  0  0  0  0  0  0  0  0  0  0
   -5.0480   14.7870    1.1450 C   0  0  0  0  0  0  0  0  0  0  0  0
   -7.5220   14.9550   -1.4690 O   0  0  0  0  0  0  0  0  0  0  0  0
   -5.5400   14.3080   -0.2060 C   0  0  2  0  0  0  0  0  0  0  0  0
   -3.5920   15.0080    1.3290 C   0  0  0  0  0  0  0  0  0  0  0  0
   -2.8100   15.0850    0.2480 C   0  0  0  0  0  0  0  0  0  0  0  0
   -4.5960   14.6350   -1.3360 C   0  0  0  0  0  0  0  0  0  0  0  0
   -3.3290   14.9750   -1.0970 C   0  0  0  0  0  0  0  0  0  0  0  0
   -2.4910   15.2120   -2.1360 F   0  0  0  0  0  0  0  0  0  0  0  0
  1  2  1  0
  2  3  1  0
  2  4  2  0
  4  5  1  0
  4  6  1  0
  3  7  2  0
  6  8  2  0
  6  9  1  0
  7  9  1  0
  7 10  1  0
 10 11  2  0
  9 12  1  6
 11 13  1  0
 12 13  2  0
 13 14  1  0
M  END
