mac-x0527-diamond-x0574_0_A
     RDKit          3D

 22 24  0  0  0  0  0  0  0  0999 V2000
   -3.8670   15.3720   -3.6390 O   0  0  0  0  0  0  0  0  0  0  0  0
   -3.1490   15.0650   -2.6970 C   0  0  0  0  0  0  0  0  0  0  0  0
   -1.8300   14.7570   -2.8970 N   0  0  0  0  0  0  0  0  0  0  0  0
   -3.6410   15.0010   -1.3010 C   0  0  0  0  0  0  0  0  0  0  0  0
   -1.1170   14.7750   -4.1530 C   0  0  0  0  0  0  0  0  0  0  0  0
   -4.9280   15.3420   -1.0190 C   0  0  0  0  0  0  0  0  0  0  0  0
   -2.8070   14.5960   -0.2670 N   0  0  0  0  0  0  0  0  0  0  0  0
   -0.9860   13.3820   -4.7130 C   0  0  0  0  0  0  0  0  0  0  0  0
   -5.3930   15.2780    0.3060 N   0  0  0  0  0  0  0  0  0  0  0  0
   -3.1710   14.7790    1.0620 C   0  0  0  0  0  0  0  0  0  0  0  0
   -1.1620   14.2960   -0.3360 S   0  0  0  0  0  0  0  0  0  0  0  0
   -6.7050   14.8570    0.5800 O   0  0  0  0  0  0  0  0  0  0  0  0
   -1.8960   12.3720   -4.3590 C   0  0  0  0  0  0  0  0  0  0  0  0
    0.0500   13.0790   -5.6090 C   0  0  0  0  0  0  0  0  0  0  0  0
   -4.4520   15.1300    1.3250 C   0  0  0  0  0  0  0  0  0  0  0  0
   -2.1970   14.5780    2.0250 N   0  0  0  0  0  0  0  0  0  0  0  0
   -1.0950   14.2880    1.4280 C   0  0  0  0  0  0  0  0  0  0  0  0
   -6.8000   14.5170    1.9730 C   0  0  0  0  0  0  0  0  0  0  0  0
    0.0550   13.9960    2.0710 N   0  0  0  0  0  0  0  0  0  0  0  0
   -1.7680   11.0880   -4.8900 C   0  0  0  0  0  0  0  0  0  0  0  0
    0.1770   11.7960   -6.1370 C   0  0  0  0  0  0  0  0  0  0  0  0
   -0.7310   10.7970   -5.7760 C   0  0  0  0  0  0  0  0  0  0  0  0
  1  2  2  0
  2  3  1  0
  2  4  1  0
  3  5  1  0
  4  6  2  0
  4  7  1  0
  5  8  1  0
  6  9  1  0
  7 10  1  0
  7 11  1  0
  9 12  1  0
  8 13  2  0
  8 14  1  0
  9 15  1  0
 10 15  2  0
 10 16  1  0
 11 17  1  0
 16 17  2  0
 12 18  1  0
 17 19  1  0
 13 20  1  0
 14 21  2  0
 20 22  2  0
 21 22  1  0
M  END
