mac-x0212-mac-x0396
     RDKit          3D

 22 23  0  0  0  0  0  0  0  0999 V2000
   -8.2430   11.2040    0.2930 C   0  0  0  0  0  0  0  0  0  0  0  0
   -7.7540   12.7100    1.0810 S   0  0  2  0  0  0  0  0  0  0  0  0
   -8.0750   12.5960    2.4870 O   0  0  0  0  0  0  0  0  0  0  0  0
   -8.1010   13.9280    0.2250 N   0  0  0  0  0  0  0  0  0  0  0  0
   -6.0190   12.7040    1.1370 N   0  0  0  0  0  0  0  0  0  0  0  0
   -5.0890   12.9900    0.0780 C   0  0  0  0  0  0  0  0  0  0  0  0
   -6.8660   14.5750    0.1720 C   0  0  0  0  0  0  0  0  0  0  0  0
   -3.7490   13.2640    0.4020 C   0  0  0  0  0  0  0  0  0  0  0  0
   -5.4270   13.0190   -1.2890 C   0  0  0  0  0  0  0  0  0  0  0  0
   -6.3830   15.0140   -0.9980 N   0  0  0  0  0  0  0  0  0  0  0  0
   -6.2530   14.6550    1.4000 C   0  0  0  0  0  0  0  0  0  0  0  0
   -2.7860   13.5540   -0.5900 C   0  0  0  0  0  0  0  0  0  0  0  0
   -4.4710   13.3120   -2.2830 C   0  0  0  0  0  0  0  0  0  0  0  0
   -5.1470   15.5530   -0.9060 C   0  0  0  0  0  0  0  0  0  0  0  0
   -5.0170   15.2060    1.4440 C   0  0  0  0  0  0  0  0  0  0  0  0
   -3.1430   13.5800   -1.9440 C   0  0  0  0  0  0  0  0  0  0  0  0
   -4.4410   15.6470    0.2960 C   0  0  0  0  0  0  0  0  0  0  0  0
   -2.0990   13.8910   -2.9700 C   0  0  0  0  0  0  0  0  0  0  0  0
   -3.0990   16.1930    0.4520 C   0  0  0  0  0  0  0  0  0  0  0  0
   -0.8930   13.8260   -2.8080 O   0  0  0  0  0  0  0  0  0  0  0  0
   -2.6170   14.2650   -4.1570 O   0  0  0  0  0  0  0  0  0  0  0  0
   -2.1860   15.2590    1.1020 N   0  0  0  0  0  0  0  0  0  0  0  0
  2  1  1  6
  2  3  2  0
  2  4  2  0
  2  5  1  0
  5  6  1  0
  4  7  1  0
  6  8  2  0
  6  9  1  0
  7 10  2  0
  7 11  1  0
  8 12  1  0
  9 13  2  0
 10 14  1  0
 11 15  2  0
 12 16  2  0
 13 16  1  0
 14 17  2  0
 15 17  1  0
 16 18  1  0
 17 19  1  0
 18 20  2  0
 18 21  1  0
 19 22  1  0
M  END
