mac-x0306-mac-x0321
     RDKit          3D

 15 16  0  0  0  0  0  0  0  0999 V2000
   -3.9640   15.5010    1.6950 Cl  0  0  0  0  0  0  0  0  0  0  0  0
   -4.2630   14.6110    0.1860 C   0  0  2  0  0  0  0  0  0  0  0  0
   -2.9690   14.6050   -0.6290 C   0  0  0  0  0  0  0  0  0  0  0  0
   -5.4500   15.2940   -0.4680 C   0  0  2  0  0  0  0  0  0  0  0  0
   -6.6880   14.8700    0.2900 C   0  0  0  0  0  0  0  0  0  0  0  0
   -5.4480   15.0970   -1.9510 C   0  0  0  0  0  0  0  0  0  0  0  0
   -3.0520   14.9590   -2.0520 N   0  0  0  0  0  0  0  0  0  0  0  0
   -1.9580   14.7070   -2.8890 C   0  0  0  0  0  0  0  0  0  0  0  0
   -6.6680   14.5160    1.6320 N   0  0  0  0  0  0  0  0  0  0  0  0
   -7.9150   14.7890   -0.1810 N   0  0  0  0  0  0  0  0  0  0  0  0
   -4.3150   14.9500   -2.6440 C   0  0  0  0  0  0  0  0  0  0  0  0
   -0.7660   14.5890   -2.2620 O   0  0  0  0  0  0  0  0  0  0  0  0
   -2.0150   14.5910   -4.1060 O   0  0  0  0  0  0  0  0  0  0  0  0
   -8.6950   14.3840    0.8660 C   0  0  0  0  0  0  0  0  0  0  0  0
   -7.9430   14.2100    1.9990 C   0  0  0  0  0  0  0  0  0  0  0  0
  2  1  1  1
  2  3  1  0
  2  4  1  0
  4  5  1  1
  4  6  1  0
  3  7  1  0
  7  8  1  0
  5  9  1  0
  5 10  2  0
  6 11  2  0
  7 11  1  0
  8 12  1  0
  8 13  2  0
 10 14  1  0
  9 15  1  0
 14 15  2  0
M  END
