mac-x0179-mac-x0436
     RDKit          3D

 16 17  0  0  0  0  0  0  0  0999 V2000
    1.2700   12.8410   -2.0650 O   0  0  0  0  0  0  0  0  0  0  0  0
    0.8620   12.0150   -3.0490 C   0  0  0  0  0  0  0  0  0  0  0  0
    0.3680   10.9370   -2.7760 O   0  0  0  0  0  0  0  0  0  0  0  0
    1.0700   12.5420   -4.4600 C   0  0  2  0  0  0  0  0  0  0  0  0
    1.0770   14.0520   -4.5020 C   0  0  0  0  0  0  0  0  0  0  0  0
    0.2060   11.9100   -5.4510 N   0  0  0  0  0  0  0  0  0  0  0  0
    0.7560   11.4210   -6.5810 C   0  0  0  0  0  0  0  0  0  0  0  0
   -0.9570   11.2360   -5.1560 C   0  0  0  0  0  0  0  0  0  0  0  0
    1.7790   11.7500   -7.0850 O   0  0  0  0  0  0  0  0  0  0  0  0
   -1.7130   11.3920   -4.2180 O   0  0  0  0  0  0  0  0  0  0  0  0
   -0.0970   10.3630   -7.0900 C   0  0  0  0  0  0  0  0  0  0  0  0
   -1.1550   10.2390   -6.2180 C   0  0  0  0  0  0  0  0  0  0  0  0
    0.0400    9.5720   -8.2150 C   0  0  0  0  0  0  0  0  0  0  0  0
   -2.1540    9.3050   -6.4200 C   0  0  0  0  0  0  0  0  0  0  0  0
   -0.9580    8.6190   -8.4450 C   0  0  0  0  0  0  0  0  0  0  0  0
   -2.0440    8.4850   -7.5540 C   0  0  0  0  0  0  0  0  0  0  0  0
  1  2  1  0
  2  3  2  0
  2  4  1  0
  4  5  1  1
  4  6  1  0
  6  7  1  0
  6  8  1  0
  7  9  2  0
  8 10  2  0
  7 11  1  0
  8 12  1  0
 11 12  2  0
 11 13  1  0
 12 14  1  0
 13 15  2  0
 14 16  2  0
 15 16  1  0
M  END
