mac-x0277-mac-x1493
     RDKit          3D

 26 28  0  0  0  0  0  0  0  0999 V2000
   -1.2470   18.4390   -5.2600 Cl  0  0  0  0  0  0  0  0  0  0  0  0
   -0.5230   16.8910   -5.0180 C   0  0  0  0  0  0  0  0  0  0  0  0
   -1.2550   15.7170   -5.1490 C   0  0  0  0  0  0  0  0  0  0  0  0
    0.8290   16.8340   -4.6810 C   0  0  0  0  0  0  0  0  0  0  0  0
   -2.7240   15.6680   -5.4870 C   0  0  0  0  0  0  0  0  0  0  0  0
   -0.6040   14.4800   -4.9450 C   0  0  0  0  0  0  0  0  0  0  0  0
    1.4590   15.6010   -4.4750 C   0  0  0  0  0  0  0  0  0  0  0  0
   -3.3590   15.0740   -4.2570 C   0  0  0  0  0  0  0  0  0  0  0  0
    0.7500   14.4080   -4.6070 C   0  0  0  0  0  0  0  0  0  0  0  0
    1.4130   13.0670   -4.3920 C   0  0  0  0  0  0  0  0  0  0  0  0
   -2.2470   14.9440   -3.3210 N   0  0  0  0  0  0  0  0  0  0  0  0
    1.0320   12.4240   -3.0780 C   0  0  0  0  0  0  0  0  0  0  0  0
   -2.4180   14.8290   -2.0780 C   0  0  0  0  0  0  0  0  0  0  0  0
    0.2870   11.3080   -3.2210 O   0  0  0  0  0  0  0  0  0  0  0  0
    1.3310   12.8170   -1.9640 O   0  0  0  0  0  0  0  0  0  0  0  0
   -1.3890   14.7210   -1.2170 O   0  0  0  0  0  0  0  0  0  0  0  0
   -3.7380   14.7920   -1.4730 C   0  0  0  0  0  0  0  0  0  0  0  0
   -3.8340   14.9240   -0.1030 C   0  0  0  0  0  0  0  0  0  0  0  0
   -4.9000   14.6200   -2.2040 C   0  0  0  0  0  0  0  0  0  0  0  0
   -5.0870   14.8650    0.4940 C   0  0  0  0  0  0  0  0  0  0  0  0
   -6.1300   14.5640   -1.6570 N   0  0  0  0  0  0  0  0  0  0  0  0
   -6.2200   14.6790   -0.3270 C   0  0  0  0  0  0  0  0  0  0  0  0
   -5.2260   14.9830    1.8690 C   0  0  0  0  0  0  0  0  0  0  0  0
   -7.4660   14.6120    0.2780 C   0  0  0  0  0  0  0  0  0  0  0  0
   -6.4900   14.9090    2.4550 C   0  0  0  0  0  0  0  0  0  0  0  0
   -7.6100   14.7220    1.6610 C   0  0  0  0  0  0  0  0  0  0  0  0
  1  2  1  0
  2  3  2  0
  2  4  1  0
  3  5  1  0
  3  6  1  0
  4  7  2  0
  5  8  1  0
  6  9  2  0
  7  9  1  0
  9 10  1  0
  8 11  1  0
 10 12  1  0
 11 13  2  3
 12 14  1  0
 12 15  2  0
 13 16  1  0
 13 17  1  0
 17 18  2  0
 17 19  1  0
 18 20  1  0
 19 21  2  0
 20 22  2  0
 21 22  1  0
 20 23  1  0
 22 24  1  0
 23 25  2  0
 24 26  2  0
 25 26  1  0
M  END
