mac-x0302-mac-x0212
     RDKit          3D

 17 17  0  0  0  0  0  0  0  0999 V2000
    1.6220   14.3640   -3.7640 O   0  0  0  0  0  0  0  0  0  0  0  0
    0.5830   14.1530   -2.9400 C   0  0  0  0  0  0  0  0  0  0  0  0
    0.7390   13.5950   -1.8660 O   0  0  0  0  0  0  0  0  0  0  0  0
   -0.7330   14.6720   -3.4860 C   0  0  0  0  0  0  0  0  0  0  0  0
   -1.7280   14.5240   -2.4520 N   0  0  0  0  0  0  0  0  0  0  0  0
   -2.9800   15.0720   -2.5560 C   0  0  0  0  0  0  0  0  0  0  0  0
   -3.4520   15.5300   -3.5860 O   0  0  0  0  0  0  0  0  0  0  0  0
   -3.7350   15.0630   -1.2890 C   0  0  0  0  0  0  0  0  0  0  0  0
   -5.1250   15.0100   -1.3300 C   0  0  0  0  0  0  0  0  0  0  0  0
   -3.0530   15.0980   -0.0630 C   0  0  0  0  0  0  0  0  0  0  0  0
   -5.8010   14.9870   -0.1300 C   0  0  0  0  0  0  0  0  0  0  0  0
   -3.7500   15.0790    1.1270 C   0  0  0  0  0  0  0  0  0  0  0  0
   -7.2290   14.9120   -0.0580 N   0  0  0  0  0  0  0  0  0  0  0  0
   -5.1240   15.0230    1.0880 C   0  0  0  0  0  0  0  0  0  0  0  0
   -7.6120   14.4100    1.3390 S   0  0  0  0  0  0  0  0  0  0  0  0
   -7.0240   12.7410    1.4880 C   0  0  0  0  0  0  0  0  0  0  0  0
   -8.9050   14.5360    1.9620 O   0  0  0  0  0  0  0  0  0  0  0  0
  1  2  1  0
  2  3  2  0
  2  4  1  0
  4  5  1  0
  5  6  1  0
  6  7  2  0
  6  8  1  0
  8  9  2  0
  8 10  1  0
  9 11  1  0
 10 12  2  0
 11 13  1  0
 11 14  2  0
 12 14  1  0
 13 15  2  0
 15 16  1  0
 15 17  2  0
M  END
