mac-x0568-diamond-x0626_0_A
     RDKit          3D

 20 21  0  0  0  0  0  0  0  0999 V2000
   -8.0080   13.6620    1.0040 C   0  0  0  0  0  0  0  0  0  0  0  0
   -7.3270   14.4390    2.1080 C   0  0  0  0  0  0  0  0  0  0  0  0
   -6.0200   14.9680    1.4670 C   0  0  0  0  0  0  0  0  0  0  0  0
   -6.9070   13.8490    0.0460 C   0  0  0  0  0  0  0  0  0  0  0  0
   -7.1270   14.5040   -1.1190 N   0  0  0  0  0  0  0  0  0  0  0  0
   -5.6660   13.3550    0.4510 C   0  0  0  0  0  0  0  0  0  0  0  0
   -4.8380   15.0420    2.1170 N   0  0  0  0  0  0  0  0  0  0  0  0
   -5.9870   15.3680    0.2990 O   0  0  0  0  0  0  0  0  0  0  0  0
   -6.0310   14.6940   -1.9010 C   0  0  0  0  0  0  0  0  0  0  0  0
   -4.5780   13.5620   -0.3680 C   0  0  0  0  0  0  0  0  0  0  0  0
   -4.7500   14.2540   -1.5650 C   0  0  0  0  0  0  0  0  0  0  0  0
   -3.6030   15.0850    1.5220 C   0  0  0  0  0  0  0  0  0  0  0  0
   -3.5660   14.4960   -2.4160 C   0  0  0  0  0  0  0  0  0  0  0  0
   -2.4430   14.6350    1.9410 N   0  0  0  0  0  0  0  0  0  0  0  0
   -3.5830   15.8430   -0.0010 S   0  0  0  0  0  0  0  0  0  0  0  0
   -3.6600   15.0390   -3.5060 O   0  0  0  0  0  0  0  0  0  0  0  0
   -2.3460   14.1000   -1.9400 N   0  0  0  0  0  0  0  0  0  0  0  0
   -1.9040   15.5500   -0.1290 C   0  0  0  0  0  0  0  0  0  0  0  0
   -1.4710   14.8930    0.9970 C   0  0  0  0  0  0  0  0  0  0  0  0
   -0.0950   14.4530    1.2780 C   0  0  0  0  0  0  0  0  0  0  0  0
  1  2  1  0
  2  3  1  0
  1  4  1  0
  4  5  2  0
  4  6  1  0
  3  7  1  0
  3  8  2  0
  5  9  1  0
  6 10  2  0
  9 11  2  0
 10 11  1  0
  7 12  1  0
 11 13  1  0
 12 14  2  0
 12 15  1  0
 13 16  2  0
 13 17  1  0
 15 18  1  0
 14 19  1  0
 18 19  2  0
 19 20  1  0
M  END
