mac-x0333-mac-x0139
     RDKit          3D

 21 24  0  0  0  0  0  0  0  0999 V2000
   -2.4610   15.2760   -2.5860 O   0  0  0  0  0  0  0  0  0  0  0  0
   -1.4140   14.2700   -2.4070 N   0  0  0  0  0  0  0  0  0  0  0  0
   -0.1740   14.8100   -3.0070 C   0  0  0  0  0  0  0  0  0  0  0  0
   -3.5020   14.7480   -1.7850 C   0  0  2  0  0  0  0  0  0  0  0  0
   -4.7600   15.5540   -1.7230 C   0  0  0  0  0  0  0  0  0  0  0  0
   -2.8660   14.4040   -0.4210 C   0  0  2  0  0  0  0  0  0  0  0  0
   -1.4270   14.0340   -0.9380 C   0  0  2  0  0  0  0  0  0  0  0  0
    0.5250   13.7390   -3.8590 C   0  0  0  0  0  0  0  0  0  0  0  0
   -5.5250   15.1640   -0.4900 C   0  0  2  0  0  0  0  0  0  0  0  0
   -3.8260   13.3490    0.1660 C   0  0  0  0  0  0  0  0  0  0  0  0
   -2.7900   15.4000    0.7590 C   0  0  0  0  0  0  0  0  0  0  0  0
   -0.3000   14.6980   -0.3430 N   0  0  0  0  0  0  0  0  0  0  0  0
    0.9210   12.5550   -3.0190 C   0  0  0  0  0  0  0  0  0  0  0  0
   -5.2970   13.7580   -0.0620 C   0  0  1  0  0  0  0  0  0  0  0  0
   -6.9390   15.1600   -0.6490 O   0  0  0  0  0  0  0  0  0  0  0  0
   -1.4730   15.5750    1.3750 N   0  0  0  0  0  0  0  0  0  0  0  0
   -0.4020   14.6880    1.0530 C   0  0  0  0  0  0  0  0  0  0  0  0
    1.6760   12.5370   -2.0750 O   0  0  0  0  0  0  0  0  0  0  0  0
    0.3330   11.4080   -3.4140 O   0  0  0  0  0  0  0  0  0  0  0  0
   -6.1820   13.7500    1.0520 O   0  0  0  0  0  0  0  0  0  0  0  0
   -7.3420   14.3950    0.4960 C   0  0  0  0  0  0  0  0  0  0  0  0
  1  2  1  0
  2  3  1  0
  1  4  1  0
  4  5  1  1
  4  6  1  0
  2  7  1  0
  6  7  1  0
  3  8  1  0
  9  5  1  6
  6 10  1  1
  6 11  1  0
  7 12  1  1
  8 13  1  0
  9 14  1  0
 14 10  1  1
  9 15  1  0
 11 16  1  0
 12 17  1  0
 16 17  1  0
 13 18  2  0
 13 19  1  0
 14 20  1  0
 15 21  1  0
 20 21  1  0
M  END
