mac-x0182-mac-x0337
     RDKit          3D

 25 27  0  0  0  0  0  0  0  0999 V2000
    1.7370   11.8650   -6.9350 O   0  0  0  0  0  0  0  0  0  0  0  0
    0.7580   11.6090   -6.2790 C   0  0  0  0  0  0  0  0  0  0  0  0
    0.4070   12.2080   -5.1020 N   0  0  0  0  0  0  0  0  0  0  0  0
   -0.2110   10.5460   -6.6520 C   0  0  0  0  0  0  0  0  0  0  0  0
   -0.7710   11.3370   -4.2940 S   0  0  2  0  0  0  0  0  0  0  0  0
   -1.1220   10.2860   -5.6360 C   0  0  0  0  0  0  0  0  0  0  0  0
   -0.2700    9.8450   -7.8450 C   0  0  0  0  0  0  0  0  0  0  0  0
   -1.9620   12.2980   -4.1360 N   0  0  0  0  0  0  0  0  0  0  0  0
   -0.0830   10.5750   -3.2750 O   0  0  0  0  0  0  0  0  0  0  0  0
   -2.1180    9.3340   -5.7440 C   0  0  0  0  0  0  0  0  0  0  0  0
   -1.2710    8.8720   -7.9890 C   0  0  0  0  0  0  0  0  0  0  0  0
   -1.7950   13.6900   -3.6100 C   0  0  0  0  0  0  0  0  0  0  0  0
   -2.1870    8.6200   -6.9440 C   0  0  0  0  0  0  0  0  0  0  0  0
   -3.1490   14.4640   -3.5010 C   0  0  0  0  0  0  0  0  0  0  0  0
   -3.2770   15.3660   -2.3000 N   0  0  0  0  0  0  0  0  0  0  0  0
   -3.6470   14.7200   -0.9560 S   0  0  1  0  0  0  0  0  0  0  0  0
   -2.8100   14.7040    0.2170 O   0  0  0  0  0  0  0  0  0  0  0  0
   -4.9120   15.7020   -0.4760 N   0  0  0  0  0  0  0  0  0  0  0  0
   -4.2920   13.1060   -1.2600 C   0  0  0  0  0  0  0  0  0  0  0  0
   -3.5200   12.1720   -1.9430 C   0  0  0  0  0  0  0  0  0  0  0  0
   -5.5730   12.7830   -0.8170 C   0  0  0  0  0  0  0  0  0  0  0  0
   -4.0320   10.9020   -2.1970 C   0  0  0  0  0  0  0  0  0  0  0  0
   -6.0840   11.5070   -1.0710 C   0  0  0  0  0  0  0  0  0  0  0  0
   -5.3170   10.5620   -1.7650 C   0  0  0  0  0  0  0  0  0  0  0  0
   -5.8650    9.1900   -2.0380 C   0  0  0  0  0  0  0  0  0  0  0  0
  1  2  2  0
  2  3  1  0
  2  4  1  0
  5  3  1  6
  4  6  2  0
  5  6  1  0
  4  7  1  0
  5  8  2  0
  5  9  2  0
  6 10  1  0
  7 11  2  0
  8 12  1  0
 10 13  2  0
 11 13  1  0
 12 14  1  0
 14 15  1  0
 15 16  2  0
 16 17  2  0
 16 18  1  1
 16 19  1  0
 19 20  2  0
 19 21  1  0
 20 22  1  0
 21 23  2  0
 22 24  2  0
 23 24  1  0
 24 25  1  0
M  END
