mac-x0584-mac-x0212
     RDKit          3D

 26 29  0  0  0  0  0  0  0  0999 V2000
   -5.8800   12.8920    1.0830 C   0  0  0  0  0  0  0  0  0  0  0  0
   -6.8480   14.3190    0.6330 S   0  0  0  0  0  0  0  0  0  0  0  0
   -7.2850   14.9620    1.8550 O   0  0  0  0  0  0  0  0  0  0  0  0
   -7.8290   13.9000   -0.3370 O   0  0  0  0  0  0  0  0  0  0  0  0
   -5.7710   15.2880   -0.2800 N   0  0  0  0  0  0  0  0  0  0  0  0
   -4.3580   15.1650   -0.2130 C   0  0  0  0  0  0  0  0  0  0  0  0
   -3.7480   15.2610    1.0420 N   0  0  0  0  0  0  0  0  0  0  0  0
   -3.4850   14.9060   -1.2540 C   0  0  0  0  0  0  0  0  0  0  0  0
   -3.3940   14.6040   -2.6990 C   0  0  0  0  0  0  0  0  0  0  0  0
   -2.4850   15.0530    0.7640 C   0  0  0  0  0  0  0  0  0  0  0  0
   -2.2490   14.9950   -0.6710 C   0  0  0  0  0  0  0  0  0  0  0  0
   -2.5480   13.8430   -3.1700 O   0  0  0  0  0  0  0  0  0  0  0  0
   -4.2390   15.2050   -3.5410 O   0  0  0  0  0  0  0  0  0  0  0  0
   -1.4460   14.9300    1.6230 N   0  0  0  0  0  0  0  0  0  0  0  0
   -1.0500   15.0710   -1.1940 C   0  0  0  0  0  0  0  0  0  0  0  0
   -0.9020   15.0900   -2.5850 N   0  0  0  0  0  0  0  0  0  0  0  0
   -0.0300   15.1530   -0.2930 N   0  0  0  0  0  0  0  0  0  0  0  0
   -0.2840   14.9880    1.0430 C   0  0  0  0  0  0  0  0  0  0  0  0
    0.2510   14.6590   -3.3730 C   0  0  1  0  0  0  0  0  0  0  0  0
   -1.6760   16.0300   -3.4210 C   0  0  0  0  0  0  0  0  0  0  0  0
    0.4830   13.1910   -3.1320 C   0  0  0  0  0  0  0  0  0  0  0  0
   -0.1000   15.0190   -4.8410 C   0  0  0  0  0  0  0  0  0  0  0  0
   -1.5690   15.4150   -4.8020 C   0  0  0  0  0  0  0  0  0  0  0  0
    1.3560   12.3470   -4.0860 C   0  0  0  0  0  0  0  0  0  0  0  0
   -0.6840   12.2250   -3.4610 C   0  0  0  0  0  0  0  0  0  0  0  0
    0.3780   11.1820   -3.7780 C   0  0  0  0  0  0  0  0  0  0  0  0
  1  2  1  0
  2  3  2  0
  2  4  2  0
  2  5  1  0
  5  6  1  0
  6  7  1  0
  6  8  2  0
  8  9  1  0
  7 10  2  0
  8 11  1  0
 10 11  1  0
  9 12  2  0
  9 13  1  0
 10 14  1  0
 11 15  2  0
 15 16  1  0
 15 17  1  0
 14 18  2  0
 17 18  1  0
 16 19  1  0
 16 20  1  0
 19 21  1  6
 19 22  1  0
 20 23  1  0
 22 23  1  0
 21 24  1  0
 21 25  1  0
 24 26  1  0
 25 26  1  0
M  END
