mac-x0360-mac-x0346
     RDKit          3D

 21 22  0  0  0  0  0  0  0  0999 V2000
   -7.1430   12.0470    1.6850 Cl  0  0  0  0  0  0  0  0  0  0  0  0
   -5.8570   12.0570    0.5290 C   0  0  0  0  0  0  0  0  0  0  0  0
   -6.0270   11.2860   -0.6080 C   0  0  0  0  0  0  0  0  0  0  0  0
   -4.6720   12.8050    0.7280 C   0  0  0  0  0  0  0  0  0  0  0  0
   -3.6210   12.7810   -0.2450 C   0  0  0  0  0  0  0  0  0  0  0  0
   -5.0150   11.2550   -1.5530 C   0  0  0  0  0  0  0  0  0  0  0  0
   -5.2190   10.2790   -2.9580 Cl  0  0  0  0  0  0  0  0  0  0  0  0
   -1.9440   13.6280   -0.2090 S   0  0  0  0  0  0  0  0  0  0  0  0
   -3.8400   11.9880   -1.3850 C   0  0  0  0  0  0  0  0  0  0  0  0
   -2.0770   14.2990   -1.7370 N   0  0  0  0  0  0  0  0  0  0  0  0
   -2.2300   15.0250    0.7140 N   0  0  0  0  0  0  0  0  0  0  0  0
   -3.4330   15.1450    0.3620 C   0  0  0  0  0  0  0  0  0  0  0  0
   -3.7890   15.4100   -0.9510 C   0  0  0  0  0  0  0  0  0  0  0  0
   -4.3880   14.9540    1.3220 C   0  0  0  0  0  0  0  0  0  0  0  0
   -5.0960   15.4510   -1.3160 C   0  0  0  0  0  0  0  0  0  0  0  0
   -5.7130   14.9890    0.9760 C   0  0  0  0  0  0  0  0  0  0  0  0
   -6.0580   15.2270   -0.3610 C   0  0  0  0  0  0  0  0  0  0  0  0
   -7.4400   15.2450   -0.8430 C   0  0  0  0  0  0  0  0  0  0  0  0
   -8.4480   15.2200    0.0960 N   0  0  0  0  0  0  0  0  0  0  0  0
   -7.6860   15.2550   -2.0420 O   0  0  0  0  0  0  0  0  0  0  0  0
   -8.1330   14.5490    1.3030 O   0  0  0  0  0  0  0  0  0  0  0  0
  1  2  1  0
  2  3  2  0
  2  4  1  0
  4  5  2  0
  3  6  1  0
  6  7  1  0
  5  8  1  0
  5  9  1  0
  6  9  2  0
  8 10  1  0
  8 11  2  3
 11 12  1  0
 12 13  2  0
 12 14  1  0
 13 15  1  0
 14 16  2  0
 15 17  2  0
 16 17  1  0
 17 18  1  0
 18 19  1  0
 18 20  2  0
 19 21  1  0
M  END
