mac-x0137-mac-x0326
     RDKit          3D

 26 29  0  0  0  0  0  0  0  0999 V2000
   -2.9800   11.1480   -4.4090 F   0  0  0  0  0  0  0  0  0  0  0  0
   -1.8000   11.7130   -4.0140 C   0  0  2  0  0  0  0  0  0  0  0  0
   -0.7180   10.6590   -3.9960 C   0  0  0  0  0  0  0  0  0  0  0  0
   -1.9550   12.2700   -2.6010 C   0  0  0  0  0  0  0  0  0  0  0  0
   -0.7410   12.9510   -2.0960 N   0  0  0  0  0  0  0  0  0  0  0  0
   -0.0370   10.6810   -2.6270 C   0  0  0  0  0  0  0  0  0  0  0  0
    0.4210   12.0710   -2.1940 C   0  0  0  0  0  0  0  0  0  0  0  0
   -0.9730   13.5200   -0.8440 C   0  0  0  0  0  0  0  0  0  0  0  0
   -0.2340   13.2340    0.2290 N   0  0  0  0  0  0  0  0  0  0  0  0
   -1.9950   14.3870   -0.7550 C   0  0  0  0  0  0  0  0  0  0  0  0
   -0.5670   13.8530    1.3910 C   0  0  0  0  0  0  0  0  0  0  0  0
   -2.2790   14.9580    0.4670 C   0  0  0  0  0  0  0  0  0  0  0  0
   -2.9150   14.8820   -1.7840 C   0  0  1  0  0  0  0  0  0  0  0  0
   -1.5780   14.7180    1.5810 N   0  0  0  0  0  0  0  0  0  0  0  0
   -3.4060   15.8360    0.4130 N   0  0  0  0  0  0  0  0  0  0  0  0
   -4.0560   15.4740   -0.8660 C   0  0  2  0  0  0  0  0  0  0  0  0
   -2.1350   16.0270   -2.3930 C   0  0  0  0  0  0  0  0  0  0  0  0
   -3.3100   13.9160   -3.2730 S   0  0  0  0  0  0  0  0  0  0  0  0
   -5.4320   14.4040   -0.4270 Cl  0  0  0  0  0  0  0  0  0  0  0  0
   -2.0360   14.7420   -4.2860 C   0  0  1  0  0  0  0  0  0  0  0  0
   -2.2220   16.1100   -3.8650 N   0  0  0  0  0  0  0  0  0  0  0  0
   -0.5600   14.3570   -4.0110 C   0  0  0  0  0  0  0  0  0  0  0  0
    0.3090   13.9880   -5.2230 C   0  0  0  0  0  0  0  0  0  0  0  0
    1.3450   12.9470   -4.8930 C   0  0  0  0  0  0  0  0  0  0  0  0
    1.0650   11.7760   -5.4880 O   0  0  0  0  0  0  0  0  0  0  0  0
    2.3250   13.0740   -4.1740 O   0  0  0  0  0  0  0  0  0  0  0  0
  2  1  1  1
  2  3  1  0
  2  4  1  0
  4  5  1  0
  3  6  1  0
  5  7  1  0
  6  7  1  0
  5  8  1  0
  8  9  2  0
  8 10  1  0
  9 11  1  0
 10 12  2  0
 10 13  1  0
 11 14  2  0
 12 14  1  0
 12 15  1  0
 13 16  1  0
 15 16  1  0
 13 17  1  6
 13 18  1  0
 16 19  1  1
 18 20  1  0
 17 21  1  0
 20 21  1  0
 20 22  1  1
 22 23  1  0
 23 24  1  0
 24 25  1  0
 24 26  2  0
M  END
