mac-x0365-mac-x0361
     RDKit          3D

 13 13  0  0  0  0  0  0  0  0999 V2000
   -0.6560   14.8160   -1.5370 O   0  0  0  0  0  0  0  0  0  0  0  0
   -1.7060   14.8010   -2.3770 C   0  0  0  0  0  0  0  0  0  0  0  0
   -1.5580   14.7750   -3.5820 O   0  0  0  0  0  0  0  0  0  0  0  0
   -3.0080   14.8160   -1.6740 C   0  0  0  0  0  0  0  0  0  0  0  0
   -4.2080   14.9700   -2.3730 C   0  0  0  0  0  0  0  0  0  0  0  0
   -3.0250   14.6670   -0.2830 C   0  0  0  0  0  0  0  0  0  0  0  0
   -5.4130   14.9630   -1.6810 C   0  0  0  0  0  0  0  0  0  0  0  0
   -4.2370   14.6600    0.4060 C   0  0  0  0  0  0  0  0  0  0  0  0
   -6.5390   15.1100   -2.3940 F   0  0  0  0  0  0  0  0  0  0  0  0
   -5.4390   14.8030   -0.2980 C   0  0  0  0  0  0  0  0  0  0  0  0
   -6.7180   14.7750    0.4360 C   0  0  0  0  0  0  0  0  0  0  0  0
   -6.6450   14.7910    1.8100 N   0  0  0  0  0  0  0  0  0  0  0  0
   -7.8020   14.7310   -0.1250 O   0  0  0  0  0  0  0  0  0  0  0  0
  1  2  1  0
  2  3  2  0
  2  4  1  0
  4  5  2  0
  4  6  1  0
  5  7  1  0
  6  8  2  0
  7  9  1  0
  7 10  2  0
  8 10  1  0
 10 11  1  0
 11 12  1  0
 11 13  2  0
M  END
