mac-x0564-diamond-x0421_0_A
     RDKit          3D

 25 29  0  0  0  0  0  0  0  0999 V2000
    0.6300   14.0600   -2.0840 O   0  0  0  0  0  0  0  0  0  0  0  0
   -0.1430   14.1250   -3.0430 C   0  0  0  0  0  0  0  0  0  0  0  0
    0.2470   13.9770   -4.3320 N   0  0  0  0  0  0  0  0  0  0  0  0
   -1.5750   14.3620   -2.8770 C   0  0  0  0  0  0  0  0  0  0  0  0
   -2.4290   14.3980   -4.0330 C   0  0  0  0  0  0  0  0  0  0  0  0
   -0.6070   14.0390   -5.3000 C   0  0  0  0  0  0  0  0  0  0  0  0
   -2.3120   14.5310   -1.8210 C   0  0  0  0  0  0  0  0  0  0  0  0
   -1.8170   14.4600   -0.5020 C   0  0  1  0  0  0  0  0  0  0  0  0
   -1.9760   14.2520   -5.2240 N   0  0  0  0  0  0  0  0  0  0  0  0
   -3.6970   14.7230   -2.1710 C   0  0  0  0  0  0  0  0  0  0  0  0
   -3.7930   14.6090   -3.5400 C   0  0  0  0  0  0  0  0  0  0  0  0
   -1.3010   13.1450   -0.3670 N   0  0  0  0  0  0  0  0  0  0  0  0
   -0.6730   15.2560   -0.2980 O   0  0  0  0  0  0  0  0  0  0  0  0
   -4.9990   14.6910   -4.1960 C   0  0  0  0  0  0  0  0  0  0  0  0
   -4.8240   14.9660   -1.4000 C   0  0  0  0  0  0  0  0  0  0  0  0
   -2.9200   14.6470    0.4760 C   0  0  0  0  0  0  0  0  0  0  0  0
   -6.1430   14.9180   -3.4130 C   0  0  0  0  0  0  0  0  0  0  0  0
   -6.0530   15.0640   -2.0290 C   0  0  0  0  0  0  0  0  0  0  0  0
   -2.7180   15.1140    1.6930 C   0  0  0  0  0  0  0  0  0  0  0  0
   -4.2690   14.3710    0.2690 N   0  0  0  0  0  0  0  0  0  0  0  0
   -3.9270   15.1590    2.2870 N   0  0  0  0  0  0  0  0  0  0  0  0
   -4.8440   14.6960    1.4000 C   0  0  0  0  0  0  0  0  0  0  0  0
   -6.3610   14.5790    1.7280 C   0  0  0  0  0  0  0  0  0  0  0  0
   -7.3900   14.4940    0.6340 C   0  0  0  0  0  0  0  0  0  0  0  0
   -7.0600   13.2750    1.4470 C   0  0  0  0  0  0  0  0  0  0  0  0
  1  2  2  0
  2  3  1  0
  2  4  1  0
  4  5  1  0
  3  6  2  0
  4  7  2  0
  7  8  1  0
  5  9  2  0
  6  9  1  0
  7 10  1  0
  5 11  1  0
 10 11  2  0
  8 12  1  1
  8 13  1  0
 11 14  1  0
 10 15  1  0
  8 16  1  0
 14 17  2  0
 15 18  2  0
 17 18  1  0
 16 19  2  0
 16 20  1  0
 19 21  1  0
 20 22  2  0
 21 22  1  0
 22 23  1  0
 23 24  1  0
 23 25  1  0
 24 25  1  0
M  END
