mac-x0282-mac-x0361
     RDKit          3D

 20 22  0  0  0  0  0  0  0  0999 V2000
   -6.5730   14.6920    1.5240 N   0  0  0  0  0  0  0  0  0  0  0  0
   -6.7140   14.4860    0.1630 C   0  0  0  0  0  0  0  0  0  0  0  0
   -7.8260   14.2950   -0.3020 O   0  0  0  0  0  0  0  0  0  0  0  0
   -5.4930   14.5230   -0.7040 C   0  0  0  0  0  0  0  0  0  0  0  0
   -4.3110   13.8900   -0.3190 C   0  0  0  0  0  0  0  0  0  0  0  0
   -5.5210   15.2090   -1.9360 C   0  0  0  0  0  0  0  0  0  0  0  0
   -3.1650   13.9490   -1.1260 C   0  0  0  0  0  0  0  0  0  0  0  0
   -4.3580   15.2590   -2.7370 C   0  0  0  0  0  0  0  0  0  0  0  0
   -3.1730   14.6460   -2.3370 C   0  0  0  0  0  0  0  0  0  0  0  0
   -2.0930   14.7950   -3.1760 O   0  0  0  0  0  0  0  0  0  0  0  0
   -0.8920   15.2840   -2.5200 C   0  0  0  0  0  0  0  0  0  0  0  0
   -1.0060   15.0560   -1.0260 C   0  0  0  0  0  0  0  0  0  0  0  0
   -2.1930   15.3480   -0.3490 C   0  0  0  0  0  0  0  0  0  0  0  0
    0.0220   14.5360   -0.2110 C   0  0  0  0  0  0  0  0  0  0  0  0
   -3.4400   15.8680   -0.7350 C   0  0  0  0  0  0  0  0  0  0  0  0
   -2.2820   15.1060    1.0080 C   0  0  0  0  0  0  0  0  0  0  0  0
   -0.2240   14.3520    1.1550 C   0  0  0  0  0  0  0  0  0  0  0  0
   -4.2360   15.9150    0.3740 C   0  0  0  0  0  0  0  0  0  0  0  0
   -3.5220   15.4490    1.4310 N   0  0  0  0  0  0  0  0  0  0  0  0
   -1.3550   14.6190    1.8100 N   0  0  0  0  0  0  0  0  0  0  0  0
  1  2  1  0
  2  3  2  0
  2  4  1  0
  4  5  2  0
  4  6  1  0
  5  7  1  0
  6  8  2  0
  7  9  2  0
  8  9  1  0
  9 10  1  0
 10 11  1  0
 11 12  1  0
 12 13  1  0
 12 14  2  0
 13 15  1  0
 13 16  2  0
 14 17  1  0
 15 18  2  0
 16 19  1  0
 18 19  1  0
 16 20  1  0
 17 20  2  0
M  END
