mac-x0354-mac-x0496
     RDKit          3D

 36 39  0  0  0  0  0  0  0  0999 V2000
    0.5470   11.2100   -8.1790 C   0  0  0  0  0  0  0  0  0  0  0  0
    0.8580   11.6100   -6.8190 N   0  0  0  0  0  0  0  0  0  0  0  0
    1.8210   12.5020   -6.5630 N   0  0  0  0  0  0  0  0  0  0  0  0
    0.2440   11.1500   -5.6980 C   0  0  0  0  0  0  0  0  0  0  0  0
    1.8250   12.6070   -5.2370 C   0  0  0  0  0  0  0  0  0  0  0  0
    0.8630   11.7780   -4.5980 C   0  0  0  0  0  0  0  0  0  0  0  0
   -0.8250   10.1780   -5.8160 C   0  0  0  0  0  0  0  0  0  0  0  0
    0.5780   11.5920   -3.1690 C   0  0  0  0  0  0  0  0  0  0  0  0
   -0.5900    8.9500   -6.4520 C   0  0  0  0  0  0  0  0  0  0  0  0
   -2.0850   10.4650   -5.3000 C   0  0  0  0  0  0  0  0  0  0  0  0
    0.5940   12.4010   -2.1920 N   0  0  0  0  0  0  0  0  0  0  0  0
    0.2450   10.3290   -2.7720 O   0  0  0  0  0  0  0  0  0  0  0  0
   -1.6160    8.0190   -6.5650 C   0  0  0  0  0  0  0  0  0  0  0  0
   -3.1130    9.5340   -5.4140 C   0  0  0  0  0  0  0  0  0  0  0  0
    0.9040   13.8170   -2.2250 C   0  0  0  0  0  0  0  0  0  0  0  0
   -2.8780    8.3090   -6.0460 C   0  0  0  0  0  0  0  0  0  0  0  0
   -0.3090   14.5560   -1.6480 C   0  0  0  0  0  0  0  0  0  0  0  0
   -1.3110   14.8130   -2.6940 N   0  0  0  0  0  0  0  0  0  0  0  0
   -2.5530   14.9600   -2.3770 C   0  0  0  0  0  0  0  0  0  0  0  0
   -3.4100   15.2080   -3.3840 O   0  0  0  0  0  0  0  0  0  0  0  0
   -3.2530   14.9220   -1.0790 C   0  0  0  0  0  0  0  0  0  0  0  0
   -2.5160   15.0280    0.1050 C   0  0  0  0  0  0  0  0  0  0  0  0
   -4.6440   14.7820   -1.0310 C   0  0  0  0  0  0  0  0  0  0  0  0
   -3.1580   15.0060    1.3330 C   0  0  0  0  0  0  0  0  0  0  0  0
   -5.2810   14.7510    0.2160 C   0  0  0  0  0  0  0  0  0  0  0  0
   -6.7500   14.5880    0.3580 C   0  0  0  0  0  0  0  0  0  0  0  0
   -4.5390   14.8720    1.3810 C   0  0  0  0  0  0  0  0  0  0  0  0
   -7.1710   14.0370    1.5590 N   0  0  0  0  0  0  0  0  0  0  0  0
   -7.5040   14.9200   -0.5460 O   0  0  0  0  0  0  0  0  0  0  0  0
   -8.5770   13.7980    1.8550 C   0  0  0  0  0  0  0  0  0  0  0  0
   -9.1280   15.0460    2.4280 C   0  0  0  0  0  0  0  0  0  0  0  0
  -10.0190   15.7420    1.6710 O   0  0  0  0  0  0  0  0  0  0  0  0
   -8.8710   15.6030    3.5970 N   0  0  0  0  0  0  0  0  0  0  0  0
   -9.6450   16.7200    3.5640 C   0  0  0  0  0  0  0  0  0  0  0  0
  -10.3530   16.8560    2.4280 N   0  0  0  0  0  0  0  0  0  0  0  0
   -9.6770   17.6800    4.6950 C   0  0  0  0  0  0  0  0  0  0  0  0
  1  2  1  0
  2  3  1  0
  2  4  1  0
  3  5  2  0
  4  6  2  0
  5  6  1  0
  4  7  1  0
  6  8  1  0
  7  9  2  0
  7 10  1  0
  8 11  2  3
  8 12  1  0
  9 13  1  0
 10 14  2  0
 11 15  1  0
 13 16  2  0
 14 16  1  0
 15 17  1  0
 17 18  1  0
 18 19  2  3
 19 20  1  0
 19 21  1  0
 21 22  2  0
 21 23  1  0
 22 24  1  0
 23 25  2  0
 25 26  1  0
 24 27  2  0
 25 27  1  0
 26 28  1  0
 26 29  2  0
 28 30  1  0
 30 31  1  0
 31 32  1  0
 31 33  2  0
 33 34  1  0
 32 35  1  0
 34 35  2  0
 34 36  1  0
M  END
