mac-x0588-mac-x0441
     RDKit          3D

 34 38  0  0  0  0  0  0  0  0999 V2000
   -4.2800   14.6860    0.8200 N   0  0  0  0  0  0  0  0  0  0  0  0
   -3.4960   15.6810    0.1210 C   0  0  1  0  0  0  0  0  0  0  0  0
   -1.9620   15.5130    0.2690 C   0  0  2  0  0  0  0  0  0  0  0  0
   -3.9580   15.5450   -1.2290 N   0  0  0  0  0  0  0  0  0  0  0  0
   -3.3050   14.4260   -1.8840 C   0  0  0  0  0  0  0  0  0  0  0  0
   -1.1750   15.3200   -1.0720 C   0  0  2  0  0  0  0  0  0  0  0  0
   -1.5340   14.3840    1.0860 N   0  0  0  0  0  0  0  0  0  0  0  0
   -1.9180   14.6880   -2.1730 N   0  0  0  0  0  0  0  0  0  0  0  0
   -0.0610   14.4860   -0.6290 N   0  0  0  0  0  0  0  0  0  0  0  0
   -0.1270   14.3780    0.8140 C   0  0  0  0  0  0  0  0  0  0  0  0
   -1.4920   14.7110   -3.6130 C   0  0  2  0  0  0  0  0  0  0  0  0
   -1.2050   13.2470   -4.1180 C   0  0  0  0  0  0  0  0  0  0  0  0
   -0.7660   15.8690   -4.3760 C   0  0  1  0  0  0  0  0  0  0  0  0
    0.1660   12.7980   -4.7000 C   0  0  1  0  0  0  0  0  0  0  0  0
   -1.5670   17.0580   -4.4840 O   0  0  0  0  0  0  0  0  0  0  0  0
    0.6030   16.3840   -4.0310 C   0  0  0  0  0  0  0  0  0  0  0  0
    0.9440   12.2070   -3.5480 C   0  0  0  0  0  0  0  0  0  0  0  0
    0.7080   17.5430   -5.0110 C   0  0  0  0  0  0  0  0  0  0  0  0
   -0.7370   17.9960   -5.1800 C   0  0  0  0  0  0  0  0  0  0  0  0
    0.0160   11.8380   -5.8160 N   0  0  0  0  0  0  0  0  0  0  0  0
    0.5330   10.9510   -3.2480 O   0  0  0  0  0  0  0  0  0  0  0  0
    1.8360   12.7040   -2.8890 O   0  0  0  0  0  0  0  0  0  0  0  0
    0.8280   11.8990   -6.9280 N   0  0  0  0  0  0  0  0  0  0  0  0
   -0.8820   10.8140   -5.9250 C   0  0  0  0  0  0  0  0  0  0  0  0
    0.4010   10.8820   -7.7410 C   0  0  0  0  0  0  0  0  0  0  0  0
   -0.6560   10.1980   -7.1280 C   0  0  0  0  0  0  0  0  0  0  0  0
   -1.9330   10.3930   -4.9640 C   0  0  0  0  0  0  0  0  0  0  0  0
    0.9010   10.4580   -9.1110 C   0  0  0  0  0  0  0  0  0  0  0  0
   -1.4260    9.0290   -7.6360 C   0  0  0  0  0  0  0  0  0  0  0  0
   -3.0160    9.6170   -5.7320 C   0  0  0  0  0  0  0  0  0  0  0  0
    1.5900    9.2850   -9.0550 F   0  0  0  0  0  0  0  0  0  0  0  0
   -0.1140   10.2250   -9.9760 F   0  0  0  0  0  0  0  0  0  0  0  0
    1.6720   11.3330   -9.7840 F   0  0  0  0  0  0  0  0  0  0  0  0
   -2.4040    8.4910   -6.5770 C   0  0  0  0  0  0  0  0  0  0  0  0
  2  1  1  1
  2  3  1  0
  2  4  1  0
  4  5  1  0
  3  6  1  0
  3  7  1  1
  5  8  1  0
  6  8  1  0
  6  9  1  1
  7 10  1  0
  9 10  1  0
  8 11  1  0
 11 12  1  1
 11 13  1  0
 14 12  1  1
 13 15  1  0
 13 16  1  1
 14 17  1  0
 16 18  1  0
 15 19  1  0
 18 19  1  0
 14 20  1  0
 17 21  1  0
 17 22  2  0
 20 23  1  0
 20 24  1  0
 23 25  2  0
 24 26  2  0
 25 26  1  0
 24 27  1  0
 25 28  1  0
 26 29  1  0
 27 30  1  0
 28 31  1  0
 28 32  1  0
 28 33  1  0
 29 34  1  0
 30 34  1  0
M  END
