mac-x0138-mac-x0358
     RDKit          3D

 25 27  0  0  0  0  0  0  0  0999 V2000
   -1.9420   14.7900   -3.3490 C   0  0  0  0  0  0  0  0  0  0  0  0
   -2.8680   15.0000   -2.2990 N   0  0  0  0  0  0  0  0  0  0  0  0
   -4.1970   15.2400   -2.3790 C   0  0  0  0  0  0  0  0  0  0  0  0
   -2.5260   14.9890   -1.0130 C   0  0  0  0  0  0  0  0  0  0  0  0
   -4.7250   15.3900   -1.1790 N   0  0  0  0  0  0  0  0  0  0  0  0
   -3.6630   15.2350   -0.3140 C   0  0  0  0  0  0  0  0  0  0  0  0
   -1.3350   14.7910   -0.5450 N   0  0  0  0  0  0  0  0  0  0  0  0
   -3.5190   15.2800    1.0790 C   0  0  0  0  0  0  0  0  0  0  0  0
   -1.2970   14.8500    0.7670 C   0  0  0  0  0  0  0  0  0  0  0  0
   -4.5800   15.5330    1.9170 N   0  0  0  0  0  0  0  0  0  0  0  0
   -0.0400   14.6270    1.1060 N   0  0  0  0  0  0  0  0  0  0  0  0
   -2.2900   15.0720    1.6170 N   0  0  0  0  0  0  0  0  0  0  0  0
    0.3170   13.6800    0.0850 C   0  0  0  0  0  0  0  0  0  0  0  0
    1.0810   14.1640   -1.1750 C   0  0  0  0  0  0  0  0  0  0  0  0
    1.6520   13.0570   -1.9550 O   0  0  0  0  0  0  0  0  0  0  0  0
    0.8840   12.3740   -2.8820 C   0  0  0  0  0  0  0  0  0  0  0  0
    0.2560   11.3540   -2.6150 O   0  0  0  0  0  0  0  0  0  0  0  0
    0.9590   13.0410   -4.2560 C   0  0  0  0  0  0  0  0  0  0  0  0
   -0.3830   13.4860   -4.8080 C   0  0  0  0  0  0  0  0  0  0  0  0
   -1.3430   12.5530   -5.2350 C   0  0  0  0  0  0  0  0  0  0  0  0
   -0.6940   14.8520   -4.9000 C   0  0  0  0  0  0  0  0  0  0  0  0
   -1.0470   11.2230   -5.1510 O   0  0  0  0  0  0  0  0  0  0  0  0
   -2.5810   12.9690   -5.7370 C   0  0  0  0  0  0  0  0  0  0  0  0
   -1.9390   15.2720   -5.3980 C   0  0  0  0  0  0  0  0  0  0  0  0
   -2.8820   14.3300   -5.8170 C   0  0  0  0  0  0  0  0  0  0  0  0
  1  2  1  0
  2  3  1  0
  2  4  1  0
  3  5  2  0
  4  6  2  0
  5  6  1  0
  4  7  1  0
  6  8  1  0
  7  9  2  0
  8 10  1  0
  9 11  1  0
  8 12  2  0
  9 12  1  0
 11 13  1  0
 13 14  1  0
 14 15  1  0
 15 16  1  0
 16 17  2  0
 16 18  1  0
 18 19  1  0
 19 20  2  0
 19 21  1  0
 20 22  1  0
 20 23  1  0
 21 24  2  0
 23 25  2  0
 24 25  1  0
M  END
