mac-x0319-mac-x0193
     RDKit          3D

 21 22  0  0  0  0  0  0  0  0999 V2000
    0.4790   10.5570   -3.0470 O   0  0  0  0  0  0  0  0  0  0  0  0
    0.8180   11.8340   -3.3560 C   0  0  0  0  0  0  0  0  0  0  0  0
    1.5170   12.5000   -2.5990 O   0  0  0  0  0  0  0  0  0  0  0  0
    0.2080   12.3510   -4.6980 C   0  0  2  0  0  0  0  0  0  0  0  0
    1.0190   12.2730   -5.9160 N   0  0  0  0  0  0  0  0  0  0  0  0
   -0.1280   13.8120   -4.5880 C   0  0  0  0  0  0  0  0  0  0  0  0
    1.0660   11.2720   -6.8720 C   0  0  0  0  0  0  0  0  0  0  0  0
    0.8630   14.8000   -4.3650 C   0  0  0  0  0  0  0  0  0  0  0  0
   -1.4570   14.2050   -4.7180 C   0  0  0  0  0  0  0  0  0  0  0  0
    2.0880   10.7530   -7.0780 O   0  0  0  0  0  0  0  0  0  0  0  0
   -0.0450   10.9090   -7.5980 N   0  0  0  0  0  0  0  0  0  0  0  0
    0.4780   16.1400   -4.2850 C   0  0  0  0  0  0  0  0  0  0  0  0
   -1.8160   15.5420   -4.6380 C   0  0  0  0  0  0  0  0  0  0  0  0
    1.4080   17.1030   -4.0670 O   0  0  0  0  0  0  0  0  0  0  0  0
   -0.8470   16.5100   -4.4230 C   0  0  0  0  0  0  0  0  0  0  0  0
    0.1030    9.9690   -8.7470 C   0  0  0  0  0  0  0  0  0  0  0  0
    1.1460    8.8670   -8.4750 C   0  0  0  0  0  0  0  0  0  0  0  0
    0.4260   10.6670  -10.0720 C   0  0  0  0  0  0  0  0  0  0  0  0
    1.8470    8.2810   -9.7210 C   0  0  0  0  0  0  0  0  0  0  0  0
    0.4500    9.7000  -11.2690 C   0  0  0  0  0  0  0  0  0  0  0  0
    0.9600    8.2920  -10.9500 C   0  0  0  0  0  0  0  0  0  0  0  0
  1  2  1  0
  2  3  2  0
  2  4  1  0
  4  5  1  6
  4  6  1  0
  5  7  1  0
  6  8  2  0
  6  9  1  0
  7 10  2  0
  7 11  1  0
  8 12  1  0
  9 13  2  0
 12 14  1  0
 12 15  2  0
 13 15  1  0
 11 16  1  0
 16 17  1  0
 16 18  1  0
 17 19  1  0
 18 20  1  0
 19 21  1  0
 20 21  1  0
M  END
