mac-x0348-diamond-x0864_0_A
     RDKit          3D

 23 25  0  0  0  0  0  0  0  0999 V2000
    0.3870   18.6220   -6.0460 C   0  0  0  0  0  0  0  0  0  0  0  0
   -0.0430   17.3730   -5.4710 N   0  0  0  0  0  0  0  0  0  0  0  0
    0.7680   16.5600   -4.7500 C   0  0  0  0  0  0  0  0  0  0  0  0
   -1.2930   16.8140   -5.5540 C   0  0  0  0  0  0  0  0  0  0  0  0
    0.0770   15.4470   -4.3550 C   0  0  0  0  0  0  0  0  0  0  0  0
   -1.2370   15.5960   -4.8570 C   0  0  0  0  0  0  0  0  0  0  0  0
   -2.4690   17.2450   -6.1700 C   0  0  0  0  0  0  0  0  0  0  0  0
    0.6640   14.3350   -3.5420 C   0  0  0  0  0  0  0  0  0  0  0  0
   -2.3810   14.7960   -4.7760 C   0  0  0  0  0  0  0  0  0  0  0  0
   -3.5800   16.4050   -6.0610 C   0  0  0  0  0  0  0  0  0  0  0  0
    0.6270   12.8150   -3.9140 C   0  0  1  0  0  0  0  0  0  0  0  0
   -3.5460   15.2130   -5.3840 C   0  0  0  0  0  0  0  0  0  0  0  0
    0.4840   12.0240   -2.6070 C   0  0  0  0  0  0  0  0  0  0  0  0
   -0.1480   12.2380   -5.0810 N   0  0  0  0  0  0  0  0  0  0  0  0
    0.6980   12.4430   -1.4710 O   0  0  0  0  0  0  0  0  0  0  0  0
    0.0730   10.7550   -2.7780 O   0  0  0  0  0  0  0  0  0  0  0  0
   -1.2700   11.4940   -4.7190 C   0  0  0  0  0  0  0  0  0  0  0  0
    0.6260   11.7950   -6.1790 C   0  0  0  0  0  0  0  0  0  0  0  0
    1.7950   12.1410   -6.3400 O   0  0  0  0  0  0  0  0  0  0  0  0
   -1.8720   10.6210   -5.5360 C   0  0  0  0  0  0  0  0  0  0  0  0
    0.0180   10.8330   -7.1920 C   0  0  0  0  0  0  0  0  0  0  0  0
   -1.4020   10.3720   -6.9230 C   0  0  1  0  0  0  0  0  0  0  0  0
   -1.6290    8.4650   -7.3090 Br  0  0  0  0  0  0  0  0  0  0  0  0
  1  2  1  0
  2  3  1  0
  2  4  1  0
  3  5  2  0
  4  6  2  0
  5  6  1  0
  4  7  1  0
  5  8  1  0
  6  9  1  0
  7 10  2  0
 11  8  1  1
  9 12  2  0
 10 12  1  0
 11 13  1  0
 11 14  1  0
 13 15  2  0
 13 16  1  0
 14 17  1  0
 14 18  1  0
 18 19  2  0
 17 20  2  0
 18 21  1  0
 20 22  1  0
 21 22  1  0
 22 23  1  1
M  END
