mac-x0226-diamond-x0711_0_A
     RDKit          3D

 27 29  0  0  0  0  0  0  0  0999 V2000
    0.1100   12.9060   -2.1760 N   0  0  0  0  0  0  0  0  0  0  0  0
    0.3520   11.6750   -2.7650 C   0  0  0  0  0  0  0  0  0  0  0  0
    0.3560   10.6070   -2.1370 O   0  0  0  0  0  0  0  0  0  0  0  0
   -0.5600   13.8920   -3.1380 S   0  0  2  0  0  0  0  0  0  0  0  0
   -1.4000   14.9770   -2.1760 N   0  0  0  0  0  0  0  0  0  0  0  0
   -1.7090   13.0410   -4.1850 C   0  0  0  0  0  0  0  0  0  0  0  0
    0.1600   14.8250   -3.9800 O   0  0  0  0  0  0  0  0  0  0  0  0
    0.5670   11.7090   -4.2030 C   0  0  0  0  0  0  0  0  0  0  0  0
    1.4420   12.5090   -4.9760 C   0  0  0  0  0  0  0  0  0  0  0  0
   -0.0720   10.9270   -5.1370 C   0  0  0  0  0  0  0  0  0  0  0  0
   -2.6580   14.8770   -1.5610 C   0  0  0  0  0  0  0  0  0  0  0  0
    1.3600   12.2440   -6.2820 N   0  0  0  0  0  0  0  0  0  0  0  0
    0.4170   11.2620   -6.3710 N   0  0  0  0  0  0  0  0  0  0  0  0
   -3.8290   15.1580   -2.2920 C   0  0  0  0  0  0  0  0  0  0  0  0
   -2.7970   14.5150   -0.2220 C   0  0  0  0  0  0  0  0  0  0  0  0
    0.0330   10.6910   -7.6120 C   0  0  0  0  0  0  0  0  0  0  0  0
   -5.0950   15.0820   -1.6950 C   0  0  0  0  0  0  0  0  0  0  0  0
   -4.0520   14.4370    0.3810 C   0  0  0  0  0  0  0  0  0  0  0  0
   -1.1040    9.8920   -7.7190 C   0  0  0  0  0  0  0  0  0  0  0  0
    0.7960   10.9210   -8.7460 C   0  0  0  0  0  0  0  0  0  0  0  0
   -5.2130   14.7200   -0.3460 C   0  0  0  0  0  0  0  0  0  0  0  0
   -6.5160   14.6160    0.3680 C   0  0  0  0  0  0  0  0  0  0  0  0
   -1.4500    9.3460   -8.9600 C   0  0  0  0  0  0  0  0  0  0  0  0
    0.4610   10.3850   -9.9780 C   0  0  0  0  0  0  0  0  0  0  0  0
   -6.5280   14.6300    1.7400 N   0  0  0  0  0  0  0  0  0  0  0  0
   -7.5750   14.5240   -0.2420 O   0  0  0  0  0  0  0  0  0  0  0  0
   -0.6690    9.5920  -10.0870 C   0  0  0  0  0  0  0  0  0  0  0  0
  1  2  1  0
  2  3  2  0
  1  4  2  0
  4  5  1  0
  4  6  1  6
  4  7  2  0
  2  8  1  0
  8  9  1  0
  8 10  2  0
  5 11  1  0
  9 12  2  0
 10 13  1  0
 12 13  1  0
 11 14  2  0
 11 15  1  0
 13 16  1  0
 14 17  1  0
 15 18  2  0
 16 19  2  0
 16 20  1  0
 17 21  2  0
 18 21  1  0
 21 22  1  0
 19 23  1  0
 20 24  2  0
 22 25  1  0
 22 26  2  0
 23 27  2  0
 24 27  1  0
M  END
