mac-x0161-diamond-x0282_0_A
     RDKit          3D

 25 28  0  0  0  0  0  0  0  0999 V2000
   -4.6680   16.0400   -0.0180 N   0  0  0  0  0  0  0  0  0  0  0  0
   -3.4760   15.9210   -0.7990 C   0  0  1  0  0  0  0  0  0  0  0  0
   -2.6380   14.8350   -0.4430 C   0  0  1  0  0  0  0  0  0  0  0  0
   -3.8380   15.6620   -2.1370 N   0  0  0  0  0  0  0  0  0  0  0  0
   -2.6590   15.1330   -2.8430 C   0  0  0  0  0  0  0  0  0  0  0  0
   -1.2650   15.3090   -0.7880 C   0  0  2  0  0  0  0  0  0  0  0  0
   -2.7440   14.2680    0.9110 C   0  0  1  0  0  0  0  0  0  0  0  0
   -1.3290   15.4330   -2.2420 N   0  0  0  0  0  0  0  0  0  0  0  0
   -0.5070   14.2550   -0.1740 N   0  0  0  0  0  0  0  0  0  0  0  0
   -1.1640   14.1480    1.1530 C   0  0  0  0  0  0  0  0  0  0  0  0
   -3.5220   15.1310    1.9140 C   0  0  0  0  0  0  0  0  0  0  0  0
   -3.7130   13.1100    0.5880 C   0  0  0  0  0  0  0  0  0  0  0  0
   -0.2120   14.9290   -3.0500 C   0  0  0  0  0  0  0  0  0  0  0  0
   -4.9970   14.7410    2.1410 C   0  0  0  0  0  0  0  0  0  0  0  0
   -5.0470   13.5750   -0.0410 C   0  0  0  0  0  0  0  0  0  0  0  0
   -0.3200   13.4990   -3.4590 C   0  0  0  0  0  0  0  0  0  0  0  0
   -5.8260   14.5120    0.8740 C   0  0  1  0  0  0  0  0  0  0  0  0
   -7.2110   13.9290    1.2090 C   0  0  0  0  0  0  0  0  0  0  0  0
   -0.8880   12.8180   -4.5190 C   0  0  0  0  0  0  0  0  0  0  0  0
    0.2720   12.6010   -2.6240 O   0  0  0  0  0  0  0  0  0  0  0  0
   -8.2250   14.5230    0.3980 O   0  0  0  0  0  0  0  0  0  0  0  0
    0.1060   11.3220   -3.1220 N   0  0  0  0  0  0  0  0  0  0  0  0
   -0.5850   11.4730   -4.2520 C   0  0  0  0  0  0  0  0  0  0  0  0
   -0.9210   10.4000   -5.0070 O   0  0  0  0  0  0  0  0  0  0  0  0
   -1.8510   10.6600   -6.0490 C   0  0  0  0  0  0  0  0  0  0  0  0
  2  1  1  1
  3  2  1  1
  2  4  1  0
  4  5  1  0
  3  6  1  0
  3  7  1  0
  5  8  1  0
  6  8  1  0
  6  9  1  6
  7 10  1  1
  9 10  1  0
  7 11  1  0
  7 12  1  0
  8 13  1  0
 11 14  1  0
 12 15  1  0
 13 16  1  0
 14 17  1  0
 15 17  1  0
 17 18  1  1
 16 19  2  0
 16 20  1  0
 18 21  1  0
 20 22  1  0
 19 23  1  0
 22 23  2  0
 23 24  1  0
 24 25  1  0
M  END
