mac-x0193-mac-x0139
     RDKit          3D

 26 28  0  0  0  0  0  0  0  0999 V2000
    0.2910   10.6080   -3.3540 O   0  0  0  0  0  0  0  0  0  0  0  0
    0.7770   11.8650   -3.4790 C   0  0  0  0  0  0  0  0  0  0  0  0
    1.8120   12.1840   -2.9220 O   0  0  0  0  0  0  0  0  0  0  0  0
   -0.1110   12.7460   -4.3220 C   0  0  2  0  0  0  0  0  0  0  0  0
    0.1400   12.6720   -5.8230 N   0  0  0  0  0  0  0  0  0  0  0  0
    0.0200   14.1620   -3.6070 C   0  0  0  0  0  0  0  0  0  0  0  0
    0.8390   11.7100   -6.5980 C   0  0  0  0  0  0  0  0  0  0  0  0
   -1.1910   14.5860   -2.7770 N   0  0  0  0  0  0  0  0  0  0  0  0
    2.0460   11.7400   -6.7020 O   0  0  0  0  0  0  0  0  0  0  0  0
    0.0140   10.7610   -7.2510 N   0  0  0  0  0  0  0  0  0  0  0  0
   -2.2810   15.0680   -3.6260 C   0  0  0  0  0  0  0  0  0  0  0  0
   -1.2710   14.7120   -1.3340 C   0  0  0  0  0  0  0  0  0  0  0  0
    0.2890    9.9310   -8.4780 C   0  0  0  0  0  0  0  0  0  0  0  0
   -2.4790   14.8710   -0.6960 C   0  0  0  0  0  0  0  0  0  0  0  0
   -0.0970   14.7230   -0.5380 N   0  0  0  0  0  0  0  0  0  0  0  0
    1.3020    8.7930   -8.2760 C   0  0  0  0  0  0  0  0  0  0  0  0
    0.6080   10.7300   -9.7520 C   0  0  0  0  0  0  0  0  0  0  0  0
   -2.5150   14.9950    0.7900 C   0  0  0  0  0  0  0  0  0  0  0  0
   -0.2170   14.8130    0.7680 C   0  0  0  0  0  0  0  0  0  0  0  0
   -3.8650   14.9850   -1.0360 C   0  0  0  0  0  0  0  0  0  0  0  0
    1.8490    8.1900   -9.5890 C   0  0  0  0  0  0  0  0  0  0  0  0
    0.6680    9.8950  -11.0490 C   0  0  0  0  0  0  0  0  0  0  0  0
   -1.3680   14.8530    1.4690 N   0  0  0  0  0  0  0  0  0  0  0  0
   -3.7060   15.2240    1.2460 N   0  0  0  0  0  0  0  0  0  0  0  0
   -4.5050   15.2080    0.1210 C   0  0  0  0  0  0  0  0  0  0  0  0
    0.9710    8.4170  -10.8150 C   0  0  0  0  0  0  0  0  0  0  0  0
  1  2  1  0
  2  3  2  0
  2  4  1  0
  4  5  1  0
  4  6  1  1
  5  7  1  0
  6  8  1  0
  7  9  2  0
  7 10  1  0
  8 11  1  0
  8 12  1  0
 10 13  1  0
 12 14  2  0
 12 15  1  0
 13 16  1  0
 13 17  1  0
 14 18  1  0
 15 19  2  0
 14 20  1  0
 16 21  1  0
 17 22  1  0
 18 23  1  0
 19 23  1  0
 18 24  2  0
 20 25  2  0
 24 25  1  0
 21 26  1  0
 22 26  1  0
M  END
