mac-x0385-mac-x0138
     RDKit          3D

 13 14  0  0  0  0  0  0  0  0999 V2000
   -4.6080   13.5520   -0.6630 C   0  0  0  0  0  0  0  0  0  0  0  0
   -3.4590   14.5360   -0.3520 C   0  0  2  0  0  0  0  0  0  0  0  0
   -2.0440   13.9200   -0.5910 C   0  0  2  0  0  0  0  0  0  0  0  0
   -3.3520   14.7870    1.1780 C   0  0  2  0  0  0  0  0  0  0  0  0
   -3.7490   15.6570   -1.2600 N   0  0  0  0  0  0  0  0  0  0  0  0
   -4.3120   15.6440    1.7980 N   0  0  0  0  0  0  0  0  0  0  0  0
   -2.0360   15.3200    1.3480 N   0  0  0  0  0  0  0  0  0  0  0  0
   -1.2200   14.3220    0.6750 C   0  0  2  0  0  0  0  0  0  0  0  0
   -1.3650   14.5600   -1.7300 N   0  0  0  0  0  0  0  0  0  0  0  0
   -3.5450   15.2730   -2.6610 C   0  0  0  0  0  0  0  0  0  0  0  0
    0.1390   14.9070    0.3330 C   0  0  0  0  0  0  0  0  0  0  0  0
   -2.2560   14.5730   -2.8800 N   0  0  0  0  0  0  0  0  0  0  0  0
   -1.5020   15.1810   -3.9760 C   0  0  0  0  0  0  0  0  0  0  0  0
  2  1  1  1
  2  3  1  0
  2  4  1  0
  2  5  1  0
  4  6  1  6
  4  7  1  0
  3  8  1  0
  7  8  1  0
  3  9  1  6
  5 10  1  0
  8 11  1  6
  9 12  1  0
 10 12  1  0
 12 13  1  0
M  END
