mac-x0115-mac-x0193
     RDKit          3D

 32 34  0  0  0  0  0  0  0  0999 V2000
   -1.3300   18.5850   -5.0080 C   0  0  0  0  0  0  0  0  0  0  0  0
   -0.3410   18.0040   -5.9970 C   0  0  0  0  0  0  0  0  0  0  0  0
    1.0900   18.3980   -5.7120 C   0  0  0  0  0  0  0  0  0  0  0  0
   -0.3920   16.6080   -5.8470 O   0  0  0  0  0  0  0  0  0  0  0  0
    0.4060   16.0630   -4.8090 C   0  0  0  0  0  0  0  0  0  0  0  0
   -0.5370   15.3070   -3.8940 C   0  0  0  0  0  0  0  0  0  0  0  0
   -0.3960   15.6090   -2.4680 N   0  0  0  0  0  0  0  0  0  0  0  0
    0.5770   14.8340   -1.9540 C   0  0  0  0  0  0  0  0  0  0  0  0
   -1.5750   15.5290   -1.8110 C   0  0  0  0  0  0  0  0  0  0  0  0
    1.8830   14.5040   -3.1010 S   0  0  0  0  0  0  0  0  0  0  0  0
    0.4840   14.3110   -0.6460 N   0  0  0  0  0  0  0  0  0  0  0  0
   -1.5490   15.6010   -0.3420 C   0  0  2  0  0  0  0  0  0  0  0  0
   -2.8020   15.3950   -2.3010 C   0  0  0  0  0  0  0  0  0  0  0  0
    3.0000   13.3060   -2.5240 C   0  0  0  0  0  0  0  0  0  0  0  0
   -0.5630   14.6150    0.2360 C   0  0  0  0  0  0  0  0  0  0  0  0
   -2.9700   15.4610    0.0600 N   0  0  0  0  0  0  0  0  0  0  0  0
   -3.5920   15.3650   -1.0770 C   0  0  0  0  0  0  0  0  0  0  0  0
   -0.6480   14.1420    1.3690 O   0  0  0  0  0  0  0  0  0  0  0  0
    1.9760   12.2900   -2.3610 N   0  0  0  0  0  0  0  0  0  0  0  0
    1.1400   11.9290   -3.2920 C   0  0  0  0  0  0  0  0  0  0  0  0
    0.2210   10.9690   -3.0650 O   0  0  0  0  0  0  0  0  0  0  0  0
    1.1180   12.5250   -4.7020 C   0  0  0  0  0  0  0  0  0  0  0  0
    0.4590   11.6310   -5.6570 N   0  0  0  0  0  0  0  0  0  0  0  0
    1.0650   11.4010   -6.8630 C   0  0  0  0  0  0  0  0  0  0  0  0
    2.1730   11.8390   -7.0780 O   0  0  0  0  0  0  0  0  0  0  0  0
    0.3370   10.6430   -7.7390 N   0  0  0  0  0  0  0  0  0  0  0  0
    0.9520   10.1050   -8.9520 C   0  0  0  0  0  0  0  0  0  0  0  0
    1.4310    8.6820   -8.7030 C   0  0  0  0  0  0  0  0  0  0  0  0
    0.0160   10.1690  -10.1680 C   0  0  0  0  0  0  0  0  0  0  0  0
    2.0780    7.9910   -9.9110 C   0  0  0  0  0  0  0  0  0  0  0  0
    0.4110    9.2540  -11.3420 C   0  0  0  0  0  0  0  0  0  0  0  0
    1.8210    8.6840  -11.2450 C   0  0  0  0  0  0  0  0  0  0  0  0
  1  2  1  0
  2  3  1  0
  2  4  1  0
  4  5  1  0
  5  6  1  0
  6  7  1  0
  7  8  1  0
  7  9  1  0
  8 10  2  3
  8 11  1  0
  9 12  1  0
  9 13  2  0
 10 14  1  0
 11 15  1  0
 12 15  1  0
 12 16  1  1
 13 17  1  0
 16 17  2  0
 15 18  2  0
 14 19  1  0
 19 20  2  3
 20 21  1  0
 20 22  1  0
 22 23  1  0
 23 24  1  0
 24 25  2  0
 24 26  1  0
 26 27  1  0
 27 28  1  0
 27 29  1  0
 28 30  1  0
 29 31  1  0
 30 32  1  0
 31 32  1  0
M  END
