mac-x0223-mac-x0188
     RDKit          3D

 19 20  0  0  0  0  0  0  0  0999 V2000
    1.1890   18.2230   -5.5300 C   0  0  0  0  0  0  0  0  0  0  0  0
   -0.2060   18.0320   -5.6160 O   0  0  0  0  0  0  0  0  0  0  0  0
   -0.6330   16.7110   -5.2150 C   0  0  2  0  0  0  0  0  0  0  0  0
   -1.5020   16.9150   -3.9810 C   0  0  1  0  0  0  0  0  0  0  0  0
    0.5080   15.7300   -4.9890 C   0  0  0  0  0  0  0  0  0  0  0  0
   -2.3650   17.9470   -4.4560 O   0  0  0  0  0  0  0  0  0  0  0  0
   -2.1850   15.6140   -3.3300 C   0  0  0  0  0  0  0  0  0  0  0  0
    0.0400   14.6280   -4.0560 C   0  0  2  0  0  0  0  0  0  0  0  0
    0.7830   13.2950   -4.1190 C   0  0  0  0  0  0  0  0  0  0  0  0
   -1.4880   14.4370   -4.0370 C   0  0  0  0  0  0  0  0  0  0  0  0
   -3.7050   15.4390   -3.4940 C   0  0  0  0  0  0  0  0  0  0  0  0
   -1.8710   15.5270   -1.8050 C   0  0  0  0  0  0  0  0  0  0  0  0
    0.9010   12.7230   -2.7150 C   0  0  0  0  0  0  0  0  0  0  0  0
   -4.6080   15.3490   -2.4800 C   0  0  0  0  0  0  0  0  0  0  0  0
   -2.7840   15.4370   -0.8030 C   0  0  0  0  0  0  0  0  0  0  0  0
    0.2520   11.4890   -2.6230 O   0  0  0  0  0  0  0  0  0  0  0  0
    2.2260   12.6130   -2.3620 O   0  0  0  0  0  0  0  0  0  0  0  0
    0.3520   13.6230   -1.7750 O   0  0  0  0  0  0  0  0  0  0  0  0
   -4.2620   15.4040   -1.0280 C   0  0  0  0  0  0  0  0  0  0  0  0
  1  2  1  0
  3  2  1  1
  3  4  1  0
  3  5  1  0
  4  6  1  6
  4  7  1  0
  5  8  1  0
  8  9  1  6
  7 10  1  0
  8 10  1  0
  7 11  1  0
  7 12  1  0
  9 13  1  0
 11 14  2  0
 12 15  2  0
 13 16  1  0
 13 17  1  0
 13 18  1  0
 14 19  1  0
 15 19  1  0
M  END
