mac-x0303-mac-x0565
     RDKit          3D

 20 22  0  0  0  0  0  0  0  0999 V2000
   -8.1090   13.0450    3.2520 N   0  0  0  0  0  0  0  0  0  0  0  0
   -8.3100   14.5240    2.4820 S   0  0  0  0  0  0  0  0  0  0  0  0
   -8.1740   15.5870    3.4410 O   0  0  0  0  0  0  0  0  0  0  0  0
   -9.4640   14.4320    1.6060 O   0  0  0  0  0  0  0  0  0  0  0  0
   -6.9160   14.6700    1.4100 C   0  0  0  0  0  0  0  0  0  0  0  0
   -7.0870   15.0680    0.1360 N   0  0  0  0  0  0  0  0  0  0  0  0
   -5.6190   14.4340    1.6670 N   0  0  0  0  0  0  0  0  0  0  0  0
   -5.8650   15.0870   -0.4270 C   0  0  0  0  0  0  0  0  0  0  0  0
   -4.9590   14.6910    0.4860 C   0  0  0  0  0  0  0  0  0  0  0  0
   -5.6470   15.4360   -1.7830 C   0  0  2  0  0  0  0  0  0  0  0  0
   -3.4880   14.5550    0.1920 C   0  0  0  0  0  0  0  0  0  0  0  0
   -6.3340   14.1950   -2.1590 C   0  0  0  0  0  0  0  0  0  0  0  0
   -4.1270   15.6110   -2.0780 C   0  0  0  0  0  0  0  0  0  0  0  0
   -3.1540   14.6780   -1.3640 C   0  0  2  0  0  0  0  0  0  0  0  0
   -5.9490   13.2010   -1.3320 O   0  0  0  0  0  0  0  0  0  0  0  0
   -7.1750   14.0220   -3.0000 O   0  0  0  0  0  0  0  0  0  0  0  0
   -3.0490   13.4230   -2.2070 C   0  0  0  0  0  0  0  0  0  0  0  0
   -1.7790   15.1200   -1.5080 O   0  0  0  0  0  0  0  0  0  0  0  0
   -2.3420   13.8850   -3.3790 O   0  0  0  0  0  0  0  0  0  0  0  0
   -1.3450   14.7310   -2.8190 C   0  0  0  0  0  0  0  0  0  0  0  0
  2  1  1  0
  2  3  2  0
  2  4  2  0
  2  5  1  0
  5  6  1  0
  5  7  2  0
  6  8  1  0
  7  9  1  0
  8  9  2  0
  8 10  1  0
  9 11  1  0
 10 12  1  6
 10 13  1  0
 14 11  1  1
 13 14  1  0
 12 15  1  0
 12 16  2  0
 14 17  1  0
 14 18  1  0
 17 19  1  0
 18 20  1  0
 19 20  1  0
M  END
