mac-x0226-diamond-x0910_0_A
     RDKit          3D

 23 25  0  0  0  0  0  0  0  0999 V2000
    0.4540   12.3480   -1.6900 O   0  0  0  0  0  0  0  0  0  0  0  0
    0.0040   11.4230   -2.6650 C   0  0  0  0  0  0  0  0  0  0  0  0
    0.5290   10.1810   -2.2450 O   0  0  0  0  0  0  0  0  0  0  0  0
   -1.5200   11.2470   -2.5800 C   0  0  0  0  0  0  0  0  0  0  0  0
    0.4210   11.6630   -4.0840 C   0  0  0  0  0  0  0  0  0  0  0  0
   -2.2500   12.3360   -1.7920 C   0  0  0  0  0  0  0  0  0  0  0  0
    1.3110   12.5820   -4.6980 C   0  0  0  0  0  0  0  0  0  0  0  0
   -0.0500   10.9290   -5.1440 C   0  0  0  0  0  0  0  0  0  0  0  0
   -2.5970   13.5750   -2.6030 C   0  0  0  0  0  0  0  0  0  0  0  0
    1.3820   12.4190   -6.0270 N   0  0  0  0  0  0  0  0  0  0  0  0
    0.5330   11.3840   -6.2890 N   0  0  0  0  0  0  0  0  0  0  0  0
   -2.6790   14.7200   -1.7170 N   0  0  0  0  0  0  0  0  0  0  0  0
    0.3020   10.8550   -7.5840 C   0  0  0  0  0  0  0  0  0  0  0  0
   -0.9360   10.2550   -7.8420 C   0  0  0  0  0  0  0  0  0  0  0  0
    1.2640   10.9100   -8.5950 C   0  0  0  0  0  0  0  0  0  0  0  0
   -1.8660   14.7910   -0.6420 C   0  0  0  0  0  0  0  0  0  0  0  0
   -1.2110    9.7150   -9.0970 C   0  0  0  0  0  0  0  0  0  0  0  0
    0.9850   10.3720   -9.8530 C   0  0  0  0  0  0  0  0  0  0  0  0
   -2.2980   14.7490    0.6560 N   0  0  0  0  0  0  0  0  0  0  0  0
   -0.5600   14.9130   -0.6580 N   0  0  0  0  0  0  0  0  0  0  0  0
   -0.2500    9.7750  -10.1050 C   0  0  0  0  0  0  0  0  0  0  0  0
   -1.2670   14.8460    1.5070 N   0  0  0  0  0  0  0  0  0  0  0  0
   -0.2410   14.9480    0.6680 C   0  0  0  0  0  0  0  0  0  0  0  0
  2  1  1  0
  2  3  1  0
  2  4  1  0
  2  5  1  0
  4  6  1  0
  5  7  1  0
  5  8  2  0
  6  9  1  0
  7 10  2  0
  8 11  1  0
 10 11  1  0
  9 12  1  0
 11 13  1  0
 13 14  2  0
 13 15  1  0
 12 16  1  0
 14 17  1  0
 15 18  2  0
 16 19  1  0
 16 20  2  0
 17 21  2  0
 18 21  1  0
 19 22  1  0
 20 23  1  0
 22 23  2  0
M  END
