mac-x0482-diamond-x0548_0_A
     RDKit          3D

 27 30  0  0  0  0  0  0  0  0999 V2000
   -9.4900   46.8710   -4.7170 C   0  0  0  0  0  0  0  0  0  0  0  0
  -10.3570   45.7600   -4.9150 O   0  0  0  0  0  0  0  0  0  0  0  0
   -9.9740   44.8380   -5.8620 C   0  0  0  0  0  0  0  0  0  0  0  0
   -8.7190   44.5860   -6.2960 C   0  0  0  0  0  0  0  0  0  0  0  0
  -11.1050   44.0890   -6.4260 C   0  0  0  0  0  0  0  0  0  0  0  0
   -8.5520   43.5740   -7.3090 C   0  0  0  0  0  0  0  0  0  0  0  0
  -10.9180   42.9450   -7.1290 C   0  0  0  0  0  0  0  0  0  0  0  0
   -9.5350   42.4470   -7.3080 C   0  0  1  0  0  0  0  0  0  0  0  0
   -7.6570   43.4590   -8.2820 C   0  0  0  0  0  0  0  0  0  0  0  0
   -6.4900   44.2260   -8.7650 C   0  0  0  0  0  0  0  0  0  0  0  0
   -9.1850   41.6170   -8.4670 N   0  0  0  0  0  0  0  0  0  0  0  0
   -8.1270   42.2240   -8.9300 C   0  0  0  0  0  0  0  0  0  0  0  0
   -5.5530   44.5350   -7.7020 N   0  0  0  0  0  0  0  0  0  0  0  0
   -4.4090   43.6250   -7.7330 C   0  0  0  0  0  0  0  0  0  0  0  0
   -3.3990   44.1830   -8.6730 C   0  0  2  0  0  0  0  0  0  0  0  0
   -2.8350   43.1130   -9.4650 N   0  0  0  0  0  0  0  0  0  0  0  0
   -2.4460   45.0760   -7.9100 C   0  0  0  0  0  0  0  0  0  0  0  0
   -3.7920   42.1780   -9.8510 C   0  0  0  0  0  0  0  0  0  0  0  0
   -1.7370   43.5440  -10.3050 C   0  0  0  0  0  0  0  0  0  0  0  0
   -2.1820   46.3520   -8.6800 C   0  0  0  0  0  0  0  0  0  0  0  0
   -3.6980   41.6160  -11.0760 N   0  0  0  0  0  0  0  0  0  0  0  0
   -4.8520   41.7940   -9.0110 C   0  0  0  0  0  0  0  0  0  0  0  0
   -2.0030   44.9970  -10.7700 C   0  0  0  0  0  0  0  0  0  0  0  0
   -1.4600   46.0900   -9.9310 N   0  0  0  0  0  0  0  0  0  0  0  0
   -4.6200   40.7050  -11.4590 C   0  0  0  0  0  0  0  0  0  0  0  0
   -5.7900   40.8530   -9.4200 C   0  0  0  0  0  0  0  0  0  0  0  0
   -5.6780   40.2900  -10.6750 C   0  0  0  0  0  0  0  0  0  0  0  0
  1  2  1  0
  2  3  1  0
  3  4  2  0
  3  5  1  0
  4  6  1  0
  5  7  2  0
  6  8  1  0
  8  7  1  6
  6  9  2  0
  9 10  1  0
  8 11  1  0
  9 12  1  0
 11 12  2  0
 10 13  1  0
 13 14  1  0
 15 14  1  1
 15 16  1  0
 15 17  1  0
 16 18  1  0
 16 19  1  0
 17 20  1  0
 18 21  2  0
 18 22  1  0
 19 23  1  0
 20 24  1  0
 23 24  1  0
 21 25  1  0
 22 26  2  0
 25 27  2  0
 26 27  1  0
M  END
