mac-x0411-diamond-x0574_0_A
     RDKit          3D

 28 30  0  0  0  0  0  0  0  0999 V2000
    0.7230    8.9070   -7.8090 Cl  0  0  0  0  0  0  0  0  0  0  0  0
   -0.5780    9.5340   -6.8470 C   0  0  0  0  0  0  0  0  0  0  0  0
   -0.4990   10.7580   -6.1490 C   0  0  0  0  0  0  0  0  0  0  0  0
   -1.7360    8.7540   -6.7990 C   0  0  0  0  0  0  0  0  0  0  0  0
    0.6540   11.5220   -6.1990 O   0  0  0  0  0  0  0  0  0  0  0  0
   -1.6310   11.1750   -5.4080 C   0  0  0  0  0  0  0  0  0  0  0  0
   -2.8370    9.1790   -6.0620 C   0  0  0  0  0  0  0  0  0  0  0  0
   -1.6900   12.6510   -4.5170 Cl  0  0  0  0  0  0  0  0  0  0  0  0
    0.9500   12.3990   -5.0970 C   0  0  0  0  0  0  0  0  0  0  0  0
   -2.7830   10.3830   -5.3730 C   0  0  0  0  0  0  0  0  0  0  0  0
    0.8490   11.8120   -3.6810 C   0  0  0  0  0  0  0  0  0  0  0  0
    1.4890   12.6100   -2.7800 O   0  0  0  0  0  0  0  0  0  0  0  0
    0.2890   10.7650   -3.3860 O   0  0  0  0  0  0  0  0  0  0  0  0
    0.6260   13.2780   -1.8490 C   0  0  0  0  0  0  0  0  0  0  0  0
    1.4490   14.3700   -1.1830 C   0  0  0  0  0  0  0  0  0  0  0  0
    0.7540   15.0690    0.0060 C   0  0  0  0  0  0  0  0  0  0  0  0
    0.1040   14.2300    0.9950 N   0  0  0  0  0  0  0  0  0  0  0  0
   -1.1630   14.3950    0.7980 C   0  0  0  0  0  0  0  0  0  0  0  0
   -2.1530   14.5420    1.6320 N   0  0  0  0  0  0  0  0  0  0  0  0
   -1.4950   14.4290   -0.8650 S   0  0  0  0  0  0  0  0  0  0  0  0
   -3.3040   14.6860    0.8540 C   0  0  0  0  0  0  0  0  0  0  0  0
   -3.1210   14.6460   -0.5230 C   0  0  0  0  0  0  0  0  0  0  0  0
   -4.6170   14.8590    1.2880 C   0  0  0  0  0  0  0  0  0  0  0  0
   -4.1530   14.7680   -1.4450 C   0  0  0  0  0  0  0  0  0  0  0  0
   -5.6720   14.9500    0.3960 C   0  0  0  0  0  0  0  0  0  0  0  0
   -5.4430   14.9150   -0.9630 C   0  0  0  0  0  0  0  0  0  0  0  0
   -6.8930   15.0620    0.9980 O   0  0  0  0  0  0  0  0  0  0  0  0
   -7.0160   14.5650    2.3290 C   0  0  0  0  0  0  0  0  0  0  0  0
  1  2  1  0
  2  3  2  0
  2  4  1  0
  3  5  1  0
  3  6  1  0
  4  7  2  0
  6  8  1  0
  5  9  1  0
  6 10  2  0
  7 10  1  0
  9 11  1  0
 11 12  1  0
 11 13  2  0
 12 14  1  0
 14 15  1  0
 15 16  1  0
 16 17  1  0
 17 18  1  0
 18 19  2  0
 18 20  1  0
 19 21  1  0
 20 22  1  0
 21 22  2  0
 21 23  1  0
 22 24  1  0
 23 25  2  0
 24 26  2  0
 25 26  1  0
 25 27  1  0
 27 28  1  0
M  END
