mac-x0455-mac-x0417
     RDKit          3D

 24 26  0  0  0  0  0  0  0  0999 V2000
   -2.3860   14.6180   -2.2580 C   0  0  0  0  0  0  0  0  0  0  0  0
   -1.2450   14.3710   -3.2530 C   0  0  1  0  0  0  0  0  0  0  0  0
   -1.0250   15.6470   -3.8860 O   0  0  0  0  0  0  0  0  0  0  0  0
    0.0140   13.9680   -2.4310 C   0  0  0  0  0  0  0  0  0  0  0  0
   -1.5840   13.3840   -4.3730 C   0  0  0  0  0  0  0  0  0  0  0  0
    0.9130   14.7760   -2.2000 O   0  0  0  0  0  0  0  0  0  0  0  0
   -0.0470   12.6640   -2.0310 O   0  0  0  0  0  0  0  0  0  0  0  0
   -2.6700   12.4970   -4.2840 C   0  0  0  0  0  0  0  0  0  0  0  0
   -0.8030   13.3420   -5.5510 C   0  0  0  0  0  0  0  0  0  0  0  0
    0.4320   11.6880   -2.8590 C   0  0  0  0  0  0  0  0  0  0  0  0
   -2.9690   11.6100   -5.3190 C   0  0  0  0  0  0  0  0  0  0  0  0
   -1.1040   12.4520   -6.5800 C   0  0  0  0  0  0  0  0  0  0  0  0
    0.4890   10.4740   -2.6090 O   0  0  0  0  0  0  0  0  0  0  0  0
    0.9220   12.3190   -4.1580 C   0  0  0  0  0  0  0  0  0  0  0  0
   -2.1860   11.5870   -6.4710 C   0  0  0  0  0  0  0  0  0  0  0  0
    0.6130   11.5350   -5.3960 C   0  0  0  0  0  0  0  0  0  0  0  0
    1.3620   11.7620   -6.4900 N   0  0  0  0  0  0  0  0  0  0  0  0
   -0.3730   10.5290   -5.6510 C   0  0  0  0  0  0  0  0  0  0  0  0
    0.8730   10.9120   -7.4750 O   0  0  0  0  0  0  0  0  0  0  0  0
   -0.1580   10.1790   -6.9790 C   0  0  0  0  0  0  0  0  0  0  0  0
   -1.4010    9.8800   -4.9460 C   0  0  0  0  0  0  0  0  0  0  0  0
   -0.8960    9.2250   -7.6720 C   0  0  0  0  0  0  0  0  0  0  0  0
   -2.1650    8.9130   -5.6160 C   0  0  0  0  0  0  0  0  0  0  0  0
   -1.9180    8.5930   -6.9540 C   0  0  0  0  0  0  0  0  0  0  0  0
  2  1  1  1
  2  3  1  0
  2  4  1  0
  2  5  1  0
  4  6  2  0
  4  7  1  0
  5  8  2  0
  5  9  1  0
  7 10  1  0
  8 11  1  0
  9 12  2  0
 10 13  2  0
 10 14  1  0
 11 15  2  0
 12 15  1  0
 14 16  1  0
 16 17  2  0
 16 18  1  0
 17 19  1  0
 18 20  2  0
 19 20  1  0
 18 21  1  0
 20 22  1  0
 21 23  2  0
 22 24  2  0
 23 24  1  0
M  END
