mac-x0381-diamond-x0371_0_A
     RDKit          3D

 29 33  0  0  0  0  0  0  0  0999 V2000
   -8.5300   12.9880    4.0770 N   0  0  0  0  0  0  0  0  0  0  0  0
   -8.6510   14.2040    3.2090 C   0  0  1  0  0  0  0  0  0  0  0  0
   -8.3530   15.5010    3.9720 C   0  0  0  0  0  0  0  0  0  0  0  0
   -8.3280   13.9780    1.6740 C   0  0  0  0  0  0  0  0  0  0  0  0
  -10.0020   14.8140    3.0350 C   0  0  0  0  0  0  0  0  0  0  0  0
   -8.3600   16.5320    3.3570 O   0  0  0  0  0  0  0  0  0  0  0  0
  -10.0860   15.7490    2.0090 C   0  0  0  0  0  0  0  0  0  0  0  0
  -11.1270   14.5400    3.8100 C   0  0  0  0  0  0  0  0  0  0  0  0
   -7.0690   14.3440    0.9420 C   0  0  0  0  0  0  0  0  0  0  0  0
   -8.3420   15.4790    5.3940 C   0  0  0  0  0  0  0  0  0  0  0  0
  -11.2500   16.4150    1.7180 C   0  0  0  0  0  0  0  0  0  0  0  0
  -12.3220   15.2060    3.5330 C   0  0  0  0  0  0  0  0  0  0  0  0
   -5.8200   14.3400    1.4860 N   0  0  0  0  0  0  0  0  0  0  0  0
   -7.0140   14.6950   -0.3380 N   0  0  0  0  0  0  0  0  0  0  0  0
   -7.8490   14.3710    6.0100 O   0  0  0  0  0  0  0  0  0  0  0  0
   -8.7650   16.3860    6.3310 C   0  0  0  0  0  0  0  0  0  0  0  0
  -12.3960   16.1440    2.4860 C   0  0  0  0  0  0  0  0  0  0  0  0
  -11.2900   17.3430    0.6740 C   0  0  0  0  0  0  0  0  0  0  0  0
   -5.6940   14.8980   -0.6180 C   0  0  0  0  0  0  0  0  0  0  0  0
   -4.9260   14.6800    0.5100 C   0  0  0  0  0  0  0  0  0  0  0  0
   -8.5150   15.8020    7.5920 C   0  0  0  0  0  0  0  0  0  0  0  0
   -7.9580   14.5770    7.3380 C   0  0  0  0  0  0  0  0  0  0  0  0
  -13.5770   16.8230    2.1770 C   0  0  0  0  0  0  0  0  0  0  0  0
  -12.4680   18.0070    0.3800 C   0  0  0  0  0  0  0  0  0  0  0  0
   -3.5460   14.7990    0.5370 C   0  0  0  0  0  0  0  0  0  0  0  0
   -5.0740   15.2650   -1.8150 C   0  0  0  0  0  0  0  0  0  0  0  0
  -13.6130   17.7470    1.1300 C   0  0  0  0  0  0  0  0  0  0  0  0
   -2.9380   15.1480   -0.6610 C   0  0  0  0  0  0  0  0  0  0  0  0
   -3.6810   15.3840   -1.8210 C   0  0  0  0  0  0  0  0  0  0  0  0
  2  1  1  1
  2  3  1  0
  2  4  1  0
  2  5  1  0
  3  6  2  0
  5  7  2  0
  5  8  1  0
  4  9  1  0
  3 10  1  0
  7 11  1  0
  8 12  2  0
  9 13  1  0
  9 14  2  0
 10 15  1  0
 10 16  2  0
 11 17  2  0
 12 17  1  0
 11 18  1  0
 14 19  1  0
 13 20  1  0
 19 20  2  0
 16 21  1  0
 15 22  1  0
 21 22  2  0
 17 23  1  0
 18 24  2  0
 20 25  1  0
 19 26  1  0
 23 27  2  0
 24 27  1  0
 25 28  2  0
 26 29  2  0
 28 29  1  0
M  END
