mac-x0138-mac-x0132
     RDKit          3D

 16 18  0  0  0  0  0  0  0  0999 V2000
   -1.9130   14.6390   -3.1980 C   0  0  0  0  0  0  0  0  0  0  0  0
   -2.7260   14.3000   -2.0290 N   0  0  0  0  0  0  0  0  0  0  0  0
   -4.1030   14.7770   -2.1840 C   0  0  0  0  0  0  0  0  0  0  0  0
   -2.0610   14.6740   -0.8100 C   0  0  1  0  0  0  0  0  0  0  0  0
   -4.8960   15.1160   -0.9820 N   0  0  0  0  0  0  0  0  0  0  0  0
   -2.8020   15.0860    0.5300 C   0  0  1  0  0  0  0  0  0  0  0  0
   -1.0690   13.7440   -0.3100 N   0  0  0  0  0  0  0  0  0  0  0  0
   -3.8880   14.3820    1.0900 N   0  0  0  0  0  0  0  0  0  0  0  0
   -1.7600   14.8910    1.5110 N   0  0  0  0  0  0  0  0  0  0  0  0
   -0.6010   14.5280    0.7900 C   0  0  1  0  0  0  0  0  0  0  0  0
   -5.0160   14.3400    0.2430 C   0  0  1  0  0  0  0  0  0  0  0  0
   -6.2160   15.5590   -1.3900 C   0  0  0  0  0  0  0  0  0  0  0  0
    0.0410   13.6620    1.6630 N   0  0  0  0  0  0  0  0  0  0  0  0
   -7.2060   14.5520   -1.0400 N   0  0  0  0  0  0  0  0  0  0  0  0
   -6.1440   14.7070    1.0680 N   0  0  0  0  0  0  0  0  0  0  0  0
   -7.3870   14.4630    0.3890 C   0  0  0  0  0  0  0  0  0  0  0  0
  1  2  1  0
  2  3  1  0
  2  4  1  0
  3  5  1  0
  4  6  1  0
  4  7  1  1
  6  8  1  1
  6  9  1  0
  7 10  1  0
  9 10  1  0
  5 11  1  0
 11  8  1  1
  5 12  1  0
 10 13  1  1
 12 14  1  0
 11 15  1  0
 14 16  1  0
 15 16  1  0
M  END
