mac-x0212-mac-x0319
     RDKit          3D

 26 27  0  0  0  0  0  0  0  0999 V2000
   -6.6770   12.6920    1.3870 C   0  0  0  0  0  0  0  0  0  0  0  0
   -7.0150   14.4200    1.0970 S   0  0  0  0  0  0  0  0  0  0  0  0
   -7.8750   14.8960    2.1600 O   0  0  0  0  0  0  0  0  0  0  0  0
   -7.3940   14.6000   -0.2880 O   0  0  0  0  0  0  0  0  0  0  0  0
   -5.5000   15.0930    1.3930 N   0  0  0  0  0  0  0  0  0  0  0  0
   -4.5610   14.9880    0.3420 C   0  0  0  0  0  0  0  0  0  0  0  0
   -3.3310   14.3900    0.5830 C   0  0  0  0  0  0  0  0  0  0  0  0
   -4.8780   15.4740   -0.9310 C   0  0  0  0  0  0  0  0  0  0  0  0
   -2.4080   14.2610   -0.4420 C   0  0  0  0  0  0  0  0  0  0  0  0
   -3.9530   15.3420   -1.9590 C   0  0  0  0  0  0  0  0  0  0  0  0
   -2.7160   14.7320   -1.7140 C   0  0  0  0  0  0  0  0  0  0  0  0
   -1.7890   14.6150   -2.8350 C   0  0  0  0  0  0  0  0  0  0  0  0
   -0.5420   14.2660   -2.7870 N   0  0  0  0  0  0  0  0  0  0  0  0
   -2.4380   14.9250   -3.9700 O   0  0  0  0  0  0  0  0  0  0  0  0
    0.1780   13.9110   -1.5650 C   0  0  0  0  0  0  0  0  0  0  0  0
    0.2070   12.4570   -1.4670 N   0  0  0  0  0  0  0  0  0  0  0  0
    0.7040   11.7570   -2.4390 C   0  0  0  0  0  0  0  0  0  0  0  0
    0.7140   10.4030   -2.4050 O   0  0  0  0  0  0  0  0  0  0  0  0
    1.3310   12.3280   -3.7130 C   0  0  0  0  0  0  0  0  0  0  0  0
    0.7020   13.6400   -4.1470 C   0  0  0  0  0  0  0  0  0  0  0  0
    1.3390   14.8800   -3.9040 C   0  0  0  0  0  0  0  0  0  0  0  0
   -0.5410   13.6380   -4.7980 C   0  0  0  0  0  0  0  0  0  0  0  0
    0.7210   16.0700   -4.3030 C   0  0  0  0  0  0  0  0  0  0  0  0
   -1.1350   14.8390   -5.1880 C   0  0  0  0  0  0  0  0  0  0  0  0
    1.3390   17.2570   -4.0550 O   0  0  0  0  0  0  0  0  0  0  0  0
   -0.5070   16.0560   -4.9390 C   0  0  0  0  0  0  0  0  0  0  0  0
  1  2  1  0
  2  3  2  0
  2  4  2  0
  2  5  1  0
  5  6  1  0
  6  7  2  0
  6  8  1  0
  7  9  1  0
  8 10  2  0
  9 11  2  0
 10 11  1  0
 11 12  1  0
 12 13  2  3
 12 14  1  0
 13 15  1  0
 15 16  1  0
 16 17  2  3
 17 18  1  0
 17 19  1  0
 19 20  1  0
 20 21  2  0
 20 22  1  0
 21 23  1  0
 22 24  2  0
 23 25  1  0
 23 26  2  0
 24 26  1  0
M  END
