mac-x0436-diamond-x0895_1_A
     RDKit          3D

 26 28  0  0  0  0  0  0  0  0999 V2000
    0.8050   11.3330   -2.7020 O   0  0  0  0  0  0  0  0  0  0  0  0
    1.0490   12.6200   -3.0170 C   0  0  0  0  0  0  0  0  0  0  0  0
    0.8340   13.6110   -2.2440 N   0  0  0  0  0  0  0  0  0  0  0  0
    1.5870   12.9120   -4.3830 C   0  0  0  0  0  0  0  0  0  0  0  0
    0.4150   13.2190   -5.3060 C   0  0  0  0  0  0  0  0  0  0  0  0
    0.2620   13.3440   -0.9370 C   0  0  0  0  0  0  0  0  0  0  0  0
   -0.6450   14.4900   -0.5780 C   0  0  0  0  0  0  0  0  0  0  0  0
   -0.3590   11.9620   -5.6420 C   0  0  0  0  0  0  0  0  0  0  0  0
   -0.5070   14.8480    0.8970 C   0  0  0  0  0  0  0  0  0  0  0  0
   -1.6430   11.6520   -4.8540 C   0  0  0  0  0  0  0  0  0  0  0  0
    0.0900   11.1900   -6.5830 N   0  0  0  0  0  0  0  0  0  0  0  0
   -2.0360   12.3900   -3.9660 O   0  0  0  0  0  0  0  0  0  0  0  0
   -1.8030   14.7520    1.5710 N   0  0  0  0  0  0  0  0  0  0  0  0
   -2.3020   10.5020   -5.2210 N   0  0  0  0  0  0  0  0  0  0  0  0
   -0.6300   10.0290   -6.8960 C   0  0  0  0  0  0  0  0  0  0  0  0
   -1.8140    9.6740   -6.2340 C   0  0  0  0  0  0  0  0  0  0  0  0
   -0.1430    9.2040   -7.9070 C   0  0  0  0  0  0  0  0  0  0  0  0
   -2.8780   14.7260    0.8480 C   0  0  0  0  0  0  0  0  0  0  0  0
   -0.8290    8.0370   -8.2560 C   0  0  0  0  0  0  0  0  0  0  0  0
   -2.5050    8.5090   -6.5750 C   0  0  0  0  0  0  0  0  0  0  0  0
   -3.1220   14.7410   -0.6560 C   0  0  0  0  0  0  0  0  0  0  0  0
   -4.0790   14.6690    1.4520 N   0  0  0  0  0  0  0  0  0  0  0  0
   -2.0050    7.6930   -7.5910 C   0  0  0  0  0  0  0  0  0  0  0  0
   -4.4920   15.1510   -0.6550 N   0  0  0  0  0  0  0  0  0  0  0  0
   -5.0710   14.8520    0.5500 C   0  0  0  0  0  0  0  0  0  0  0  0
   -6.2680   14.7650    0.7540 O   0  0  0  0  0  0  0  0  0  0  0  0
  1  2  1  0
  2  3  2  3
  2  4  1  0
  4  5  1  0
  3  6  1  0
  6  7  1  0
  5  8  1  0
  7  9  1  0
  8 10  1  0
  8 11  2  0
 10 12  2  0
  9 13  1  0
 10 14  1  0
 11 15  1  0
 14 16  1  0
 15 16  2  0
 15 17  1  0
 13 18  2  3
 17 19  2  0
 16 20  1  0
 18 21  1  0
 18 22  1  0
 19 23  1  0
 20 23  2  0
 21 24  1  0
 22 25  1  0
 24 25  1  0
 25 26  2  0
M  END
