mac-x0204-mac-x0282
     RDKit          3D

 20 22  0  0  0  0  0  0  0  0999 V2000
    1.1130   13.2890   -3.4350 O   0  0  0  0  0  0  0  0  0  0  0  0
   -0.0370   13.9630   -2.9820 C   0  0  0  0  0  0  0  0  0  0  0  0
    0.4370   15.2120   -2.4800 O   0  0  0  0  0  0  0  0  0  0  0  0
   -0.6670   13.1350   -1.8830 C   0  0  0  0  0  0  0  0  0  0  0  0
   -1.0980   14.1390   -4.0170 C   0  0  0  0  0  0  0  0  0  0  0  0
   -1.5090   15.3720   -4.5290 C   0  0  0  0  0  0  0  0  0  0  0  0
   -1.7330   12.9970   -4.4990 C   0  0  0  0  0  0  0  0  0  0  0  0
   -1.0820   13.8230   -0.6410 C   0  0  0  0  0  0  0  0  0  0  0  0
   -2.5210   15.3960   -5.4790 C   0  0  0  0  0  0  0  0  0  0  0  0
   -2.7150   12.9930   -5.4200 N   0  0  0  0  0  0  0  0  0  0  0  0
   -2.3280   14.4420   -0.3740 C   0  0  0  0  0  0  0  0  0  0  0  0
   -0.1350   13.8330    0.3570 C   0  0  0  0  0  0  0  0  0  0  0  0
   -2.9780   16.5590   -6.0220 O   0  0  0  0  0  0  0  0  0  0  0  0
   -3.0880   14.2010   -5.8900 C   0  0  0  0  0  0  0  0  0  0  0  0
   -3.5510   14.6860   -1.0650 C   0  0  0  0  0  0  0  0  0  0  0  0
   -2.4840   14.9780    0.8880 C   0  0  0  0  0  0  0  0  0  0  0  0
   -0.4170   14.4000    1.5570 C   0  0  0  0  0  0  0  0  0  0  0  0
   -4.3970   15.3500   -0.2040 C   0  0  0  0  0  0  0  0  0  0  0  0
   -3.7350   15.5170    0.9800 N   0  0  0  0  0  0  0  0  0  0  0  0
   -1.5810   14.9780    1.8740 N   0  0  0  0  0  0  0  0  0  0  0  0
  2  1  1  0
  2  3  1  0
  2  4  1  0
  2  5  1  0
  5  6  2  0
  5  7  1  0
  4  8  1  0
  6  9  1  0
  7 10  2  0
  8 11  1  0
  8 12  2  0
  9 13  1  0
  9 14  2  0
 10 14  1  0
 11 15  1  0
 11 16  2  0
 12 17  1  0
 15 18  2  0
 16 19  1  0
 18 19  1  0
 16 20  1  0
 17 20  2  0
M  END
