mac-x0132-diamond-x0724_0_A
     RDKit          3D

 14 15  0  0  0  0  0  0  0  0999 V2000
   -4.6260   15.6080    2.2670 N   0  0  0  0  0  0  0  0  0  0  0  0
   -5.3910   14.8380    1.3170 C   0  0  1  0  0  0  0  0  0  0  0  0
   -6.8290   14.7420    1.6920 N   0  0  0  0  0  0  0  0  0  0  0  0
   -5.0650   15.3240   -0.1020 C   0  0  2  0  0  0  0  0  0  0  0  0
   -7.4480   14.9700    3.0290 C   0  0  0  0  0  0  0  0  0  0  0  0
   -6.0210   14.5970   -1.0570 C   0  0  1  0  0  0  0  0  0  0  0  0
   -7.7060   14.2610    0.6280 C   0  0  0  0  0  0  0  0  0  0  0  0
   -3.6250   15.1540   -0.5460 C   0  0  0  0  0  0  0  0  0  0  0  0
   -8.0670   13.8050    3.6760 N   0  0  0  0  0  0  0  0  0  0  0  0
   -7.4100   14.8580   -0.6750 N   0  0  0  0  0  0  0  0  0  0  0  0
   -5.6900   14.9570   -2.4810 C   0  0  0  0  0  0  0  0  0  0  0  0
   -3.3450   15.0890   -1.8530 C   0  0  0  0  0  0  0  0  0  0  0  0
   -8.3660   14.0850    5.0870 C   0  0  0  0  0  0  0  0  0  0  0  0
   -4.4080   15.1810   -2.8320 C   0  0  0  0  0  0  0  0  0  0  0  0
  2  1  1  1
  2  3  1  0
  2  4  1  0
  3  5  1  0
  4  6  1  0
  3  7  1  0
  4  8  1  6
  5  9  1  0
  6 10  1  0
  7 10  1  0
  6 11  1  6
  8 12  2  0
  9 13  1  0
 11 14  2  0
 12 14  1  0
M  END
