mac-x0124-mac-x0190
     RDKit          3D

 21 24  0  0  0  0  0  0  0  0999 V2000
    0.8650   14.7100   -2.7990 C   0  0  0  0  0  0  0  0  0  0  0  0
   -0.4650   14.7430   -2.2480 N   0  0  0  0  0  0  0  0  0  0  0  0
   -1.6060   14.8130   -2.9970 C   0  0  0  0  0  0  0  0  0  0  0  0
   -0.7700   14.7110   -0.8990 C   0  0  0  0  0  0  0  0  0  0  0  0
   -2.6480   14.8330   -2.1230 C   0  0  0  0  0  0  0  0  0  0  0  0
   -2.1210   14.7750   -0.7960 C   0  0  0  0  0  0  0  0  0  0  0  0
    0.0590   14.6370    0.1360 N   0  0  0  0  0  0  0  0  0  0  0  0
   -2.7170   14.7780    0.4490 C   0  0  0  0  0  0  0  0  0  0  0  0
   -0.6010   14.6300    1.3300 C   0  0  0  0  0  0  0  0  0  0  0  0
   -1.9530   14.7010    1.5910 N   0  0  0  0  0  0  0  0  0  0  0  0
   -4.1060   14.8880    0.0720 C   0  0  0  0  0  0  0  0  0  0  0  0
   -5.4610   14.6950    0.4990 C   0  0  0  0  0  0  0  0  0  0  0  0
   -3.9360   15.3490   -1.2180 C   0  0  0  0  0  0  0  0  0  0  0  0
   -6.4490   14.9960   -0.4690 C   0  0  0  0  0  0  0  0  0  0  0  0
   -6.1140   14.2730    1.6360 N   0  0  0  0  0  0  0  0  0  0  0  0
   -4.9180   15.6160   -2.0970 C   0  0  0  0  0  0  0  0  0  0  0  0
   -7.4120   14.3150    1.3690 C   0  0  0  0  0  0  0  0  0  0  0  0
   -7.6420   14.7460    0.1100 N   0  0  0  0  0  0  0  0  0  0  0  0
   -6.2180   15.4490   -1.7490 C   0  0  0  0  0  0  0  0  0  0  0  0
   -8.5450   13.9620    2.2480 C   0  0  0  0  0  0  0  0  0  0  0  0
   -9.2520   15.1650    2.5110 O   0  0  0  0  0  0  0  0  0  0  0  0
  1  2  1  0
  2  3  1  0
  2  4  1  0
  3  5  2  0
  4  6  2  0
  5  6  1  0
  4  7  1  0
  6  8  1  0
  7  9  2  0
  8 10  2  0
  9 10  1  0
  8 11  1  0
 11 12  1  0
 11 13  2  0
 12 14  2  0
 12 15  1  0
 13 16  1  0
 15 17  2  0
 14 18  1  0
 17 18  1  0
 14 19  1  0
 16 19  2  0
 17 20  1  0
 20 21  1  0
M  END
