mac-x0226-mac-x0436
     RDKit          3D

 28 31  0  0  0  0  0  0  0  0999 V2000
    0.7720   13.0640   -1.9400 N   0  0  0  0  0  0  0  0  0  0  0  0
    0.6660   11.8260   -2.5010 C   0  0  0  0  0  0  0  0  0  0  0  0
    0.4390   10.7620   -1.9050 O   0  0  0  0  0  0  0  0  0  0  0  0
   -0.2730   13.8080   -2.0600 C   0  0  0  0  0  0  0  0  0  0  0  0
   -1.5270   13.3130   -2.7560 C   0  0  0  0  0  0  0  0  0  0  0  0
    0.8530   11.9470   -3.9340 C   0  0  0  0  0  0  0  0  0  0  0  0
   -1.5440   13.2980   -4.2870 C   0  0  0  0  0  0  0  0  0  0  0  0
    1.6770   12.8200   -4.6800 C   0  0  0  0  0  0  0  0  0  0  0  0
    0.2300   11.1940   -4.8990 C   0  0  0  0  0  0  0  0  0  0  0  0
    1.5780   12.6320   -5.9980 N   0  0  0  0  0  0  0  0  0  0  0  0
    0.6750   11.6200   -6.1340 N   0  0  0  0  0  0  0  0  0  0  0  0
   -2.0560   11.9680   -4.8200 C   0  0  0  0  0  0  0  0  0  0  0  0
    0.2940   11.1160   -7.4190 C   0  0  0  0  0  0  0  0  0  0  0  0
   -3.4960   11.5680   -4.4950 C   0  0  0  0  0  0  0  0  0  0  0  0
   -1.2790   11.2020   -5.5210 N   0  0  0  0  0  0  0  0  0  0  0  0
   -4.1410   12.1580   -3.6430 O   0  0  0  0  0  0  0  0  0  0  0  0
   -0.8790   11.5790   -8.0280 C   0  0  0  0  0  0  0  0  0  0  0  0
    1.0660   10.1600   -8.0860 C   0  0  0  0  0  0  0  0  0  0  0  0
   -3.9830   10.5080   -5.2230 N   0  0  0  0  0  0  0  0  0  0  0  0
   -1.7630    9.9650   -5.9790 C   0  0  0  0  0  0  0  0  0  0  0  0
   -1.2650   11.0970   -9.2820 C   0  0  0  0  0  0  0  0  0  0  0  0
    0.6800    9.6810   -9.3380 C   0  0  0  0  0  0  0  0  0  0  0  0
   -3.1070    9.6050   -5.8390 C   0  0  0  0  0  0  0  0  0  0  0  0
   -0.8830    9.0640   -6.5850 C   0  0  0  0  0  0  0  0  0  0  0  0
   -0.4850   10.1480   -9.9370 C   0  0  0  0  0  0  0  0  0  0  0  0
   -1.3340    7.8300   -7.0480 C   0  0  0  0  0  0  0  0  0  0  0  0
   -3.5680    8.3740   -6.2990 C   0  0  0  0  0  0  0  0  0  0  0  0
   -2.6770    7.4860   -6.9050 C   0  0  0  0  0  0  0  0  0  0  0  0
  1  2  1  0
  2  3  2  0
  1  4  2  3
  4  5  1  0
  2  6  1  0
  5  7  1  0
  6  8  1  0
  6  9  2  0
  8 10  2  0
  9 11  1  0
 10 11  1  0
  7 12  1  0
 11 13  1  0
 12 14  1  0
 12 15  2  0
 14 16  2  0
 13 17  2  0
 13 18  1  0
 14 19  1  0
 15 20  1  0
 17 21  1  0
 18 22  2  0
 19 23  1  0
 20 23  2  0
 20 24  1  0
 21 25  2  0
 22 25  1  0
 24 26  2  0
 23 27  1  0
 26 28  1  0
 27 28  2  0
M  END
