mac-x0436-mac-x0226
     RDKit          3D

 28 31  0  0  0  0  0  0  0  0999 V2000
    0.7900   11.3520   -2.8570 C   0  0  0  0  0  0  0  0  0  0  0  0
    0.8450   12.8560   -3.0120 C   0  0  0  0  0  0  0  0  0  0  0  0
    0.8690   13.5480   -2.0080 O   0  0  0  0  0  0  0  0  0  0  0  0
    0.3610   10.8860   -1.7960 O   0  0  0  0  0  0  0  0  0  0  0  0
    1.2660   10.5650   -4.0280 C   0  0  2  0  0  0  0  0  0  0  0  0
    0.8760   13.4140   -4.4310 C   0  0  0  0  0  0  0  0  0  0  0  0
    2.4860   11.2120   -4.7090 C   0  0  0  0  0  0  0  0  0  0  0  0
    0.2150   10.4620   -5.1030 C   0  0  0  0  0  0  0  0  0  0  0  0
   -0.5060   13.6500   -5.0470 C   0  0  0  0  0  0  0  0  0  0  0  0
    2.1170   11.5300   -6.1040 N   0  0  0  0  0  0  0  0  0  0  0  0
    0.9150   10.8220   -6.3350 N   0  0  0  0  0  0  0  0  0  0  0  0
   -1.1970   12.3570   -5.4570 C   0  0  0  0  0  0  0  0  0  0  0  0
    0.6500   10.1570   -7.5530 C   0  0  0  0  0  0  0  0  0  0  0  0
   -2.0740   11.6710   -4.4100 C   0  0  0  0  0  0  0  0  0  0  0  0
   -1.0310   11.8720   -6.6600 N   0  0  0  0  0  0  0  0  0  0  0  0
   -0.0330    8.9360   -7.6090 C   0  0  0  0  0  0  0  0  0  0  0  0
    1.0440   10.6650   -8.7900 C   0  0  0  0  0  0  0  0  0  0  0  0
   -2.3980   12.2630   -3.3900 O   0  0  0  0  0  0  0  0  0  0  0  0
   -2.4660   10.3890   -4.7020 N   0  0  0  0  0  0  0  0  0  0  0  0
   -1.6700   10.6430   -6.9670 C   0  0  0  0  0  0  0  0  0  0  0  0
   -0.2890    8.2780   -8.8200 C   0  0  0  0  0  0  0  0  0  0  0  0
    0.8000   10.0320  -10.0030 C   0  0  0  0  0  0  0  0  0  0  0  0
   -2.3700    9.8960   -6.0070 C   0  0  0  0  0  0  0  0  0  0  0  0
   -1.5980   10.1430   -8.2710 C   0  0  0  0  0  0  0  0  0  0  0  0
    0.1270    8.8270  -10.0220 C   0  0  0  0  0  0  0  0  0  0  0  0
   -2.2030    8.9230   -8.6040 C   0  0  0  0  0  0  0  0  0  0  0  0
   -2.9710    8.6780   -6.3300 C   0  0  0  0  0  0  0  0  0  0  0  0
   -2.8820    8.1930   -7.6350 C   0  0  0  0  0  0  0  0  0  0  0  0
  1  2  1  0
  2  3  2  0
  1  4  2  0
  5  1  1  1
  2  6  1  0
  5  7  1  0
  5  8  1  0
  6  9  1  0
  7 10  1  0
  8 11  1  0
 10 11  1  0
  9 12  1  0
 11 13  1  0
 12 14  1  0
 12 15  2  0
 13 16  2  0
 13 17  1  0
 14 18  2  0
 14 19  1  0
 15 20  1  0
 16 21  1  0
 17 22  2  0
 19 23  1  0
 20 23  2  0
 20 24  1  0
 21 25  2  0
 22 25  1  0
 24 26  2  0
 23 27  1  0
 26 28  1  0
 27 28  2  0
M  END
