mac-x0212-mac-x0360
     RDKit          3D

 22 23  0  0  0  0  0  0  0  0999 V2000
   -5.4980   13.2790    1.0440 C   0  0  0  0  0  0  0  0  0  0  0  0
   -6.3770   14.6000    0.4040 S   0  0  0  0  0  0  0  0  0  0  0  0
   -7.0700   15.1090    1.5730 O   0  0  0  0  0  0  0  0  0  0  0  0
   -5.8230   12.0110    1.0580 C   0  0  0  0  0  0  0  0  0  0  0  0
   -7.1620   14.1960   -0.7360 O   0  0  0  0  0  0  0  0  0  0  0  0
   -5.1020   15.6410   -0.1700 N   0  0  0  0  0  0  0  0  0  0  0  0
   -6.9520   11.2700    0.5670 C   0  0  0  0  0  0  0  0  0  0  0  0
   -3.6070   15.7910    0.1690 C   0  0  1  0  0  0  0  0  0  0  0  0
   -7.1830   10.7070   -0.6430 C   0  0  0  0  0  0  0  0  0  0  0  0
   -3.0370   14.9770    1.2700 C   0  0  0  0  0  0  0  0  0  0  0  0
   -2.4020   15.7180   -0.9170 C   0  0  2  0  0  0  0  0  0  0  0  0
   -6.4060   10.6380   -1.9420 C   0  0  2  0  0  0  0  0  0  0  0  0
   -2.4130   14.5930   -1.9320 C   0  0  0  0  0  0  0  0  0  0  0  0
   -5.6140    9.0420   -2.1760 Cl  0  0  0  0  0  0  0  0  0  0  0  0
   -1.1670   15.7040    0.0110 C   0  0  0  0  0  0  0  0  0  0  0  0
   -5.3820   11.7070   -2.2430 C   0  0  0  0  0  0  0  0  0  0  0  0
   -1.6910   14.9340    1.1950 C   0  0  0  0  0  0  0  0  0  0  0  0
   -2.9600   14.9410   -3.1610 O   0  0  0  0  0  0  0  0  0  0  0  0
   -1.0870   14.2470   -2.3360 O   0  0  0  0  0  0  0  0  0  0  0  0
   -3.3060   13.3520   -1.1290 S   0  0  0  0  0  0  0  0  0  0  0  0
   -4.5130   12.1260   -1.1170 C   0  0  0  0  0  0  0  0  0  0  0  0
   -2.4600   13.6570    0.2430 O   0  0  0  0  0  0  0  0  0  0  0  0
  2  1  1  0
  2  3  2  0
  1  4  2  0
  2  5  2  0
  2  6  1  0
  4  7  1  0
  6  8  1  0
  7  9  2  0
  8 10  1  1
  8 11  1  0
  9 12  1  0
 11 13  1  0
 12 14  1  1
 11 15  1  1
 12 16  1  0
 10 17  2  0
 15 17  1  0
 13 18  1  0
 13 19  1  0
 13 20  1  0
 16 21  1  0
 20 21  2  0
 20 22  2  0
M  END
