mac-x0570-mac-x0511
     RDKit          3D

 34 37  0  0  0  0  0  0  0  0999 V2000
    4.7810   37.1930   -3.8370 C   0  0  0  0  0  0  0  0  0  0  0  0
    5.3470   37.9240   -2.6000 C   0  0  0  0  0  0  0  0  0  0  0  0
    5.5000   39.4160   -2.9580 C   0  0  0  0  0  0  0  0  0  0  0  0
    6.7400   37.3070   -2.3440 C   0  0  0  0  0  0  0  0  0  0  0  0
    4.4350   37.8120   -1.3660 C   0  0  0  0  0  0  0  0  0  0  0  0
    4.4730   38.7170   -0.3080 C   0  0  0  0  0  0  0  0  0  0  0  0
    3.5100   36.7860   -1.2440 C   0  0  0  0  0  0  0  0  0  0  0  0
    3.6220   38.5830    0.7950 C   0  0  0  0  0  0  0  0  0  0  0  0
    2.6470   36.6360   -0.1310 C   0  0  0  0  0  0  0  0  0  0  0  0
    3.7620   39.5460    1.7360 O   0  0  0  0  0  0  0  0  0  0  0  0
    2.7020   37.5430    0.8920 C   0  0  0  0  0  0  0  0  0  0  0  0
    1.8630   37.4420    1.9800 O   0  0  0  0  0  0  0  0  0  0  0  0
    2.6780   40.5040    1.5650 N   0  0  0  0  0  0  0  0  0  0  0  0
    3.1020   41.6910    2.3280 C   0  0  0  0  0  0  0  0  0  0  0  0
    2.5340   40.7700    0.1080 C   0  0  0  0  0  0  0  0  0  0  0  0
    4.3040   42.4480    1.7900 C   0  0  0  0  0  0  0  0  0  0  0  0
    2.9550   42.1730   -0.3300 C   0  0  0  0  0  0  0  0  0  0  0  0
    4.3020   42.4460    0.2770 C   0  0  0  0  0  0  0  0  0  0  0  0
    5.0900   43.5600   -0.2910 C   0  0  0  0  0  0  0  0  0  0  0  0
    4.9580   44.9690   -0.4620 C   0  0  0  0  0  0  0  0  0  0  0  0
    6.1860   43.1280   -0.7480 N   0  0  0  0  0  0  0  0  0  0  0  0
    6.1580   45.3280   -1.0940 C   0  0  0  0  0  0  0  0  0  0  0  0
    6.8240   44.1390   -1.2160 N   0  0  0  0  0  0  0  0  0  0  0  0
    8.0440   43.6210   -1.7210 C   0  0  2  0  0  0  0  0  0  0  0  0
    7.5100   42.2700   -2.2670 C   0  0  2  0  0  0  0  0  0  0  0  0
    9.1280   43.4310   -0.6300 C   0  0  0  0  0  0  0  0  0  0  0  0
    6.2220   42.5010   -2.8580 O   0  0  0  0  0  0  0  0  0  0  0  0
    7.3050   41.1060   -1.2630 C   0  0  0  0  0  0  0  0  0  0  0  0
    9.3330   41.9960   -0.1000 C   0  0  0  0  0  0  0  0  0  0  0  0
    8.0260   41.2120    0.0940 C   0  0  2  0  0  0  0  0  0  0  0  0
    8.1670   39.8100    0.8050 C   0  0  0  0  0  0  0  0  0  0  0  0
    9.1670   39.8850    1.9790 C   0  0  0  0  0  0  0  0  0  0  0  0
    6.8260   39.2840    1.3620 C   0  0  0  0  0  0  0  0  0  0  0  0
    8.7170   38.7550   -0.1820 C   0  0  0  0  0  0  0  0  0  0  0  0
  2  1  1  0
  2  3  1  0
  2  4  1  0
  2  5  1  0
  5  6  2  0
  5  7  1  0
  6  8  1  0
  7  9  2  0
  8 10  1  0
  8 11  2  0
  9 11  1  0
 11 12  1  0
 10 13  1  0
 13 14  1  0
 13 15  1  0
 14 16  1  0
 15 17  1  0
 16 18  1  0
 17 18  1  0
 18 19  1  0
 19 20  1  0
 19 21  2  0
 20 22  2  0
 21 23  1  0
 22 23  1  0
 24 23  1  1
 24 25  1  0
 24 26  1  0
 25 27  1  1
 25 28  1  0
 26 29  1  0
 28 30  1  0
 29 30  1  0
 30 31  1  6
 31 32  1  0
 31 33  1  0
 31 34  1  0
M  END
