mac-x0321-mac-x0373
     RDKit          3D

 18 19  0  0  0  0  0  0  0  0999 V2000
   -4.2860   15.5270    1.6280 Cl  0  0  0  0  0  0  0  0  0  0  0  0
   -4.2710   15.3190   -0.0670 C   0  0  0  0  0  0  0  0  0  0  0  0
   -3.0800   14.9620   -0.6930 C   0  0  0  0  0  0  0  0  0  0  0  0
   -5.4370   15.5050   -0.7950 C   0  0  0  0  0  0  0  0  0  0  0  0
   -3.0330   14.7870   -2.0870 C   0  0  0  0  0  0  0  0  0  0  0  0
   -5.4190   15.3380   -2.1670 C   0  0  0  0  0  0  0  0  0  0  0  0
   -1.7370   14.3950   -2.8320 C   0  0  2  0  0  0  0  0  0  0  0  0
   -4.2290   14.9840   -2.8070 C   0  0  0  0  0  0  0  0  0  0  0  0
   -0.4240   14.4500   -1.9870 C   0  0  0  0  0  0  0  0  0  0  0  0
   -1.5570   15.3580   -3.8930 O   0  0  0  0  0  0  0  0  0  0  0  0
   -1.8740   13.0910   -3.6080 C   0  0  0  0  0  0  0  0  0  0  0  0
   -0.0930   13.3490   -1.2700 O   0  0  0  0  0  0  0  0  0  0  0  0
    0.3470   15.4020   -1.9460 O   0  0  0  0  0  0  0  0  0  0  0  0
   -1.1600   12.8360   -4.7930 C   0  0  0  0  0  0  0  0  0  0  0  0
   -2.7460   12.0990   -3.1280 C   0  0  0  0  0  0  0  0  0  0  0  0
   -1.3200   11.6280   -5.4730 C   0  0  0  0  0  0  0  0  0  0  0  0
   -2.9040   10.8940   -3.8060 C   0  0  0  0  0  0  0  0  0  0  0  0
   -2.1910   10.6580   -4.9800 C   0  0  0  0  0  0  0  0  0  0  0  0
  1  2  1  0
  2  3  2  0
  2  4  1  0
  3  5  1  0
  4  6  2  0
  5  7  1  0
  5  8  2  0
  6  8  1  0
  7  9  1  0
  7 10  1  6
  7 11  1  0
  9 12  1  0
  9 13  2  0
 11 14  2  0
 11 15  1  0
 14 16  1  0
 15 17  2  0
 16 18  2  0
 17 18  1  0
M  END
