mac-x0283-mac-x0360
     RDKit          3D

 22 24  0  0  0  0  0  0  0  0999 V2000
   -7.4010   14.7230    2.8340 N   0  0  0  0  0  0  0  0  0  0  0  0
   -7.0770   14.7720    1.5300 C   0  0  0  0  0  0  0  0  0  0  0  0
   -7.9040   14.5710    0.4950 N   0  0  0  0  0  0  0  0  0  0  0  0
   -5.7750   15.0580    1.1120 C   0  0  0  0  0  0  0  0  0  0  0  0
   -7.1190   14.7190   -0.6420 O   0  0  0  0  0  0  0  0  0  0  0  0
   -5.8490   15.0070   -0.2510 C   0  0  0  0  0  0  0  0  0  0  0  0
   -4.5520   15.3500    1.7320 C   0  0  0  0  0  0  0  0  0  0  0  0
   -4.7200   15.2190   -0.9780 C   0  0  0  0  0  0  0  0  0  0  0  0
   -3.4320   15.5680    0.9640 C   0  0  0  0  0  0  0  0  0  0  0  0
   -4.4730   15.1580   -2.3040 N   0  0  0  0  0  0  0  0  0  0  0  0
   -3.5450   15.4950   -0.3700 C   0  0  0  0  0  0  0  0  0  0  0  0
   -3.4800   14.0850   -1.8620 S   0  0  1  0  0  0  0  0  0  0  0  0
   -2.6200   13.7790   -3.2530 N   0  0  0  0  0  0  0  0  0  0  0  0
   -2.4430   14.2300   -0.8480 O   0  0  0  0  0  0  0  0  0  0  0  0
   -4.5230   12.7670   -1.2980 C   0  0  0  0  0  0  0  0  0  0  0  0
   -4.5450   11.6300   -2.0680 C   0  0  0  0  0  0  0  0  0  0  0  0
   -5.3170   12.8570   -0.1240 C   0  0  0  0  0  0  0  0  0  0  0  0
   -5.3590   10.5820   -1.6930 C   0  0  0  0  0  0  0  0  0  0  0  0
   -6.1390   11.7810    0.2330 C   0  0  0  0  0  0  0  0  0  0  0  0
   -7.1400   11.8250    1.6380 Cl  0  0  0  0  0  0  0  0  0  0  0  0
   -5.3690    9.1740   -2.6690 Cl  0  0  0  0  0  0  0  0  0  0  0  0
   -6.1590   10.6460   -0.5580 C   0  0  0  0  0  0  0  0  0  0  0  0
  1  2  1  0
  2  3  2  0
  2  4  1  0
  3  5  1  0
  4  6  2  0
  5  6  1  0
  4  7  1  0
  6  8  1  0
  7  9  2  0
  8 10  1  0
  8 11  2  0
  9 11  1  0
 10 12  2  0
 12 13  1  6
 12 14  2  0
 12 15  1  0
 15 16  2  0
 15 17  1  0
 16 18  1  0
 17 19  2  0
 19 20  1  0
 18 21  1  0
 18 22  2  0
 19 22  1  0
M  END
