mac-x0576-diamond-x0962_2_B
     RDKit          3D

 21 23  0  0  0  0  0  0  0  0999 V2000
   -0.0750   13.9610    1.5810 N   0  0  0  0  0  0  0  0  0  0  0  0
   -0.6550   14.9390    0.7520 C   0  0  2  0  0  0  0  0  0  0  0  0
   -1.9510   15.1740    1.3180 N   0  0  0  0  0  0  0  0  0  0  0  0
   -0.7100   14.3620   -0.5240 N   0  0  0  0  0  0  0  0  0  0  0  0
   -1.7440   14.6340   -1.3590 C   0  0  0  0  0  0  0  0  0  0  0  0
   -3.0690   14.4140    0.7600 C   0  0  2  0  0  0  0  0  0  0  0  0
   -1.5270   14.9690   -2.5220 O   0  0  0  0  0  0  0  0  0  0  0  0
   -3.1440   14.5030   -0.7880 C   0  0  1  0  0  0  0  0  0  0  0  0
   -4.3840   14.7050    1.3130 N   0  0  0  0  0  0  0  0  0  0  0  0
   -5.5160   14.8970    0.5340 C   0  0  0  0  0  0  0  0  0  0  0  0
   -3.9440   15.6310   -1.3090 N   0  0  0  0  0  0  0  0  0  0  0  0
   -6.7640   14.5700    0.7660 N   0  0  0  0  0  0  0  0  0  0  0  0
   -5.3300   15.6010   -0.8310 C   0  0  0  0  0  0  0  0  0  0  0  0
   -7.2880   13.8760    1.9550 C   0  0  0  0  0  0  0  0  0  0  0  0
   -7.9620   14.7770    2.9540 C   0  0  0  0  0  0  0  0  0  0  0  0
   -9.0160   15.6740    2.8390 C   0  0  0  0  0  0  0  0  0  0  0  0
   -7.5090   14.7770    4.2580 N   0  0  0  0  0  0  0  0  0  0  0  0
   -9.8220   16.0340    1.7310 C   0  0  0  0  0  0  0  0  0  0  0  0
   -9.1670   16.2110    4.0890 N   0  0  0  0  0  0  0  0  0  0  0  0
   -8.2390   15.6410    4.9060 C   0  0  0  0  0  0  0  0  0  0  0  0
  -10.5370   16.3700    0.8850 N   0  0  0  0  0  0  0  0  0  0  0  0
  2  1  1  1
  2  3  1  0
  2  4  1  0
  4  5  1  0
  6  3  1  1
  5  7  2  0
  5  8  1  0
  6  8  1  0
  6  9  1  0
  9 10  1  0
  8 11  1  1
 10 12  2  3
 10 13  1  0
 11 13  1  0
 12 14  1  0
 14 15  1  0
 15 16  2  0
 15 17  1  0
 16 18  1  0
 16 19  1  0
 17 20  2  0
 19 20  1  0
 18 21  3  0
M  END
