mac-x0576-mac-x0226
     RDKit          3D

 29 32  0  0  0  0  0  0  0  0999 V2000
    0.1260   14.2410    1.7810 N   0  0  0  0  0  0  0  0  0  0  0  0
   -0.9160   14.1230    0.8170 C   0  0  1  0  0  0  0  0  0  0  0  0
   -2.0870   14.5380    1.5390 N   0  0  0  0  0  0  0  0  0  0  0  0
   -0.7040   14.6930   -0.4570 N   0  0  0  0  0  0  0  0  0  0  0  0
   -1.7460   14.7510   -1.3360 C   0  0  0  0  0  0  0  0  0  0  0  0
   -3.2230   14.3140    0.6690 C   0  0  2  0  0  0  0  0  0  0  0  0
   -1.7290   14.6010   -2.6210 N   0  0  0  0  0  0  0  0  0  0  0  0
   -3.1290   15.0210   -0.6890 C   0  0  2  0  0  0  0  0  0  0  0  0
   -4.3800   14.7950    1.3580 N   0  0  0  0  0  0  0  0  0  0  0  0
   -0.5110   14.3150   -3.4080 C   0  0  0  0  0  0  0  0  0  0  0  0
   -5.5460   14.9250    0.6380 C   0  0  0  0  0  0  0  0  0  0  0  0
   -4.2650   14.5900   -1.5030 N   0  0  0  0  0  0  0  0  0  0  0  0
   -6.6300   14.8010    1.2050 O   0  0  0  0  0  0  0  0  0  0  0  0
    0.7540   14.1300   -2.5530 C   0  0  0  0  0  0  0  0  0  0  0  0
   -5.4420   15.2240   -0.8780 C   0  0  0  0  0  0  0  0  0  0  0  0
    0.8530   12.7920   -1.9980 O   0  0  0  0  0  0  0  0  0  0  0  0
    0.5040   11.6720   -2.7060 C   0  0  0  0  0  0  0  0  0  0  0  0
    0.1250   10.6150   -2.1830 O   0  0  0  0  0  0  0  0  0  0  0  0
    0.6420   11.7570   -4.1510 C   0  0  0  0  0  0  0  0  0  0  0  0
    1.4390   12.6110   -4.9470 C   0  0  0  0  0  0  0  0  0  0  0  0
   -0.0050   10.9640   -5.0770 C   0  0  0  0  0  0  0  0  0  0  0  0
    1.3080   12.3670   -6.2540 N   0  0  0  0  0  0  0  0  0  0  0  0
    0.4130   11.3400   -6.3250 N   0  0  0  0  0  0  0  0  0  0  0  0
    0.0080   10.7590   -7.5650 C   0  0  0  0  0  0  0  0  0  0  0  0
   -1.1520    9.9940   -7.6650 C   0  0  0  0  0  0  0  0  0  0  0  0
    0.7820   10.9480   -8.6990 C   0  0  0  0  0  0  0  0  0  0  0  0
   -1.5110    9.4360   -8.9000 C   0  0  0  0  0  0  0  0  0  0  0  0
    0.4360   10.4020   -9.9260 C   0  0  0  0  0  0  0  0  0  0  0  0
   -0.7160    9.6420  -10.0280 C   0  0  0  0  0  0  0  0  0  0  0  0
  2  1  1  1
  2  3  1  0
  2  4  1  0
  4  5  1  0
  6  3  1  1
  5  7  2  3
  5  8  1  0
  6  8  1  0
  6  9  1  0
  7 10  1  0
  9 11  1  0
  8 12  1  6
 11 13  2  0
 10 14  1  0
 11 15  1  0
 12 15  1  0
 14 16  1  0
 16 17  1  0
 17 18  2  0
 17 19  1  0
 19 20  1  0
 19 21  2  0
 20 22  2  0
 21 23  1  0
 22 23  1  0
 23 24  1  0
 24 25  2  0
 24 26  1  0
 25 27  1  0
 26 28  2  0
 27 29  2  0
 28 29  1  0
M  END
