mac-x0190-mac-x0346
     RDKit          3D

 16 18  0  0  0  0  0  0  0  0999 V2000
   -9.1520   14.6820    1.4720 O   0  0  0  0  0  0  0  0  0  0  0  0
   -8.3480   14.1310    0.4470 C   0  0  1  0  0  0  0  0  0  0  0  0
   -8.1400   15.1930   -0.4700 N   0  0  0  0  0  0  0  0  0  0  0  0
   -7.0570   13.6590    1.0050 C   0  0  0  0  0  0  0  0  0  0  0  0
   -7.0350   15.2310   -1.2970 C   0  0  0  0  0  0  0  0  0  0  0  0
   -5.8200   14.0430    0.4240 C   0  0  0  0  0  0  0  0  0  0  0  0
   -7.0520   12.8370    2.1110 C   0  0  0  0  0  0  0  0  0  0  0  0
   -7.1840   15.5380   -2.4530 O   0  0  0  0  0  0  0  0  0  0  0  0
   -4.6430   13.5940    1.0270 C   0  0  0  0  0  0  0  0  0  0  0  0
   -5.9440   12.3760    2.6860 N   0  0  0  0  0  0  0  0  0  0  0  0
   -5.7340   14.8430   -0.7180 C   0  0  0  0  0  0  0  0  0  0  0  0
   -4.4820   15.2030   -1.2450 C   0  0  0  0  0  0  0  0  0  0  0  0
   -3.3970   13.9740    0.5090 C   0  0  0  0  0  0  0  0  0  0  0  0
   -4.7730   12.7720    2.1330 C   0  0  0  0  0  0  0  0  0  0  0  0
   -4.3810   15.9540   -2.3610 O   0  0  0  0  0  0  0  0  0  0  0  0
   -3.3160   14.7780   -0.6240 C   0  0  0  0  0  0  0  0  0  0  0  0
  2  1  1  1
  2  3  1  0
  2  4  1  0
  3  5  1  0
  4  6  2  0
  4  7  1  0
  5  8  2  0
  6  9  1  0
  7 10  2  0
  5 11  1  0
  6 11  1  0
 11 12  2  0
  9 13  1  0
  9 14  2  0
 10 14  1  0
 12 15  1  0
 12 16  1  0
 13 16  2  0
M  END
