mac-x0303-mac-x0271
     RDKit          3D

 14 15  0  0  0  0  0  0  0  0999 V2000
   -8.4620   12.9590    2.6690 N   0  0  0  0  0  0  0  0  0  0  0  0
   -8.5810   14.5140    2.0380 S   0  0  0  0  0  0  0  0  0  0  0  0
   -8.3950   15.4670    3.1050 O   0  0  0  0  0  0  0  0  0  0  0  0
   -9.7190   14.5560    1.1520 O   0  0  0  0  0  0  0  0  0  0  0  0
   -7.1640   14.7060    1.0040 C   0  0  0  0  0  0  0  0  0  0  0  0
   -7.2240   14.8780   -0.3570 N   0  0  0  0  0  0  0  0  0  0  0  0
   -5.9180   14.7110    1.4300 N   0  0  0  0  0  0  0  0  0  0  0  0
   -5.9370   14.9940   -0.8190 C   0  0  0  0  0  0  0  0  0  0  0  0
   -5.1470   14.8860    0.3190 C   0  0  0  0  0  0  0  0  0  0  0  0
   -5.4040   15.1760   -2.0920 C   0  0  0  0  0  0  0  0  0  0  0  0
   -3.7540   14.9600    0.2130 C   0  0  0  0  0  0  0  0  0  0  0  0
   -4.0120   15.2400   -2.1730 C   0  0  0  0  0  0  0  0  0  0  0  0
   -3.1940   15.1360   -1.0530 C   0  0  0  0  0  0  0  0  0  0  0  0
   -3.4620   15.4080   -3.4110 O   0  0  0  0  0  0  0  0  0  0  0  0
  2  1  1  0
  2  3  2  0
  2  4  2  0
  2  5  1  0
  5  6  1  0
  5  7  2  0
  6  8  1  0
  7  9  1  0
  8  9  2  0
  8 10  1  0
  9 11  1  0
 10 12  2  0
 11 13  2  0
 12 13  1  0
 12 14  1  0
M  END
