mac-x0441-mac-x0348
     RDKit          3D

 28 31  0  0  0  0  0  0  0  0999 V2000
    0.3610   10.7100   -3.2070 O   0  0  0  0  0  0  0  0  0  0  0  0
    0.9810   11.9060   -3.2470 C   0  0  0  0  0  0  0  0  0  0  0  0
    1.6540   12.2530   -2.2970 O   0  0  0  0  0  0  0  0  0  0  0  0
    0.7290   12.7400   -4.4600 C   0  0  2  0  0  0  0  0  0  0  0  0
   -0.2110   13.8200   -3.9090 C   0  0  0  0  0  0  0  0  0  0  0  0
    0.3360   11.8440   -5.5940 N   0  0  0  0  0  0  0  0  0  0  0  0
    1.1330   11.7950   -6.7090 N   0  0  0  0  0  0  0  0  0  0  0  0
   -0.7420   10.9830   -5.7350 C   0  0  0  0  0  0  0  0  0  0  0  0
   -0.1400   15.1810   -4.4880 C   0  0  0  0  0  0  0  0  0  0  0  0
    0.5500   10.8900   -7.5410 C   0  0  0  0  0  0  0  0  0  0  0  0
   -0.6110   10.3730   -6.9670 C   0  0  0  0  0  0  0  0  0  0  0  0
   -1.8540   10.7100   -4.7850 C   0  0  0  0  0  0  0  0  0  0  0  0
    0.8950   16.1040   -4.5710 C   0  0  0  0  0  0  0  0  0  0  0  0
   -1.2560   15.7440   -5.0860 C   0  0  0  0  0  0  0  0  0  0  0  0
    1.0340   10.4520   -8.8980 C   0  0  0  0  0  0  0  0  0  0  0  0
   -1.5550    9.3630   -7.5170 C   0  0  0  0  0  0  0  0  0  0  0  0
   -2.9680    9.9030   -5.4940 C   0  0  0  0  0  0  0  0  0  0  0  0
    0.3980   17.2020   -5.2170 N   0  0  0  0  0  0  0  0  0  0  0  0
   -0.9000   17.0040   -5.5350 C   0  0  0  0  0  0  0  0  0  0  0  0
   -2.5510   15.2510   -5.2740 C   0  0  0  0  0  0  0  0  0  0  0  0
    1.6380    9.2320   -8.8550 F   0  0  0  0  0  0  0  0  0  0  0  0
    0.0590   10.3650   -9.8370 F   0  0  0  0  0  0  0  0  0  0  0  0
    1.9330   11.2680   -9.4160 F   0  0  0  0  0  0  0  0  0  0  0  0
    1.1130   18.4050   -5.5350 C   0  0  0  0  0  0  0  0  0  0  0  0
   -2.4160    8.7810   -6.3910 C   0  0  0  0  0  0  0  0  0  0  0  0
   -3.4500   16.0550   -5.9250 C   0  0  0  0  0  0  0  0  0  0  0  0
   -1.7860   17.8130   -6.1790 C   0  0  0  0  0  0  0  0  0  0  0  0
   -3.0380   17.3090   -6.3560 C   0  0  0  0  0  0  0  0  0  0  0  0
  1  2  1  0
  2  3  2  0
  2  4  1  0
  4  5  1  1
  4  6  1  0
  6  7  1  0
  6  8  1  0
  5  9  1  0
  7 10  2  0
  8 11  2  0
 10 11  1  0
  8 12  1  0
  9 13  2  0
  9 14  1  0
 10 15  1  0
 11 16  1  0
 12 17  1  0
 13 18  1  0
 14 19  2  0
 18 19  1  0
 14 20  1  0
 15 21  1  0
 15 22  1  0
 15 23  1  0
 18 24  1  0
 16 25  1  0
 17 25  1  0
 20 26  2  0
 19 27  1  0
 26 28  1  0
 27 28  2  0
M  END
