mac-x0204-mac-x0226
     RDKit          3D

 23 25  0  0  0  0  0  0  0  0999 V2000
    0.2410   12.9560   -2.0770 O   0  0  0  0  0  0  0  0  0  0  0  0
    0.2100   14.1180   -2.7740 C   0  0  0  0  0  0  0  0  0  0  0  0
    0.9860   15.0560   -2.6770 O   0  0  0  0  0  0  0  0  0  0  0  0
    0.3700   11.7360   -2.6890 C   0  0  0  0  0  0  0  0  0  0  0  0
    0.3120   10.6400   -2.1210 O   0  0  0  0  0  0  0  0  0  0  0  0
   -0.9390   14.1700   -3.7220 C   0  0  0  0  0  0  0  0  0  0  0  0
    0.5780   11.7790   -4.1360 C   0  0  0  0  0  0  0  0  0  0  0  0
   -1.2850   15.3390   -4.4160 C   0  0  0  0  0  0  0  0  0  0  0  0
   -1.7210   13.0320   -3.9490 C   0  0  0  0  0  0  0  0  0  0  0  0
    1.4490   12.5750   -4.9150 C   0  0  0  0  0  0  0  0  0  0  0  0
   -0.0670   10.9950   -5.0720 C   0  0  0  0  0  0  0  0  0  0  0  0
   -2.3680   15.3210   -5.2820 C   0  0  0  0  0  0  0  0  0  0  0  0
   -2.7840   12.9970   -4.7950 N   0  0  0  0  0  0  0  0  0  0  0  0
    1.3590   12.3040   -6.2260 N   0  0  0  0  0  0  0  0  0  0  0  0
    0.4200   11.3200   -6.3170 N   0  0  0  0  0  0  0  0  0  0  0  0
   -2.7410   16.4340   -5.9780 O   0  0  0  0  0  0  0  0  0  0  0  0
   -3.0840   14.1440   -5.4460 C   0  0  0  0  0  0  0  0  0  0  0  0
    0.0290   10.7320   -7.5560 C   0  0  0  0  0  0  0  0  0  0  0  0
   -1.1140    9.9390   -7.6610 C   0  0  0  0  0  0  0  0  0  0  0  0
    0.7930   10.9400   -8.6950 C   0  0  0  0  0  0  0  0  0  0  0  0
   -1.4610    9.3780   -8.8950 C   0  0  0  0  0  0  0  0  0  0  0  0
    0.4580   10.3900   -9.9210 C   0  0  0  0  0  0  0  0  0  0  0  0
   -0.6760    9.6030  -10.0250 C   0  0  0  0  0  0  0  0  0  0  0  0
  1  2  1  0
  2  3  2  0
  1  4  1  0
  4  5  2  0
  2  6  1  0
  4  7  1  0
  6  8  2  0
  6  9  1  0
  7 10  1  0
  7 11  2  0
  8 12  1  0
  9 13  2  0
 10 14  2  0
 11 15  1  0
 14 15  1  0
 12 16  1  0
 12 17  2  0
 13 17  1  0
 15 18  1  0
 18 19  2  0
 18 20  1  0
 19 21  1  0
 20 22  2  0
 21 23  2  0
 22 23  1  0
M  END
