mac-x0436-mac-x0412
     RDKit          3D

 29 32  0  0  0  0  0  0  0  0999 V2000
    0.5460   11.2220   -3.1530 O   0  0  0  0  0  0  0  0  0  0  0  0
    1.2230   12.3750   -3.0270 C   0  0  0  0  0  0  0  0  0  0  0  0
    1.3890   12.8670   -1.9260 O   0  0  0  0  0  0  0  0  0  0  0  0
    1.7240   12.9400   -4.3310 C   0  0  0  0  0  0  0  0  0  0  0  0
    0.6220   13.2200   -5.3420 C   0  0  0  0  0  0  0  0  0  0  0  0
   -0.2090   11.9990   -5.6940 C   0  0  0  0  0  0  0  0  0  0  0  0
   -1.5950   11.8750   -5.0480 C   0  0  0  0  0  0  0  0  0  0  0  0
    0.2400   11.1180   -6.5270 N   0  0  0  0  0  0  0  0  0  0  0  0
   -1.8830   12.9570   -4.4310 N   0  0  0  0  0  0  0  0  0  0  0  0
   -2.2790   10.6900   -5.2400 N   0  0  0  0  0  0  0  0  0  0  0  0
   -0.5700   10.0170   -6.8420 C   0  0  0  0  0  0  0  0  0  0  0  0
   -3.0940   13.2750   -3.7180 C   0  0  0  0  0  0  0  0  0  0  0  0
   -1.8170    9.7840   -6.2180 C   0  0  0  0  0  0  0  0  0  0  0  0
   -0.1040    9.1330   -7.8110 C   0  0  0  0  0  0  0  0  0  0  0  0
   -2.9280   14.7300   -3.2220 C   0  0  0  0  0  0  0  0  0  0  0  0
   -0.8580    8.0180   -8.1740 C   0  0  0  0  0  0  0  0  0  0  0  0
   -2.5690    8.6620   -6.5850 C   0  0  0  0  0  0  0  0  0  0  0  0
   -2.0890    7.7810   -7.5610 C   0  0  0  0  0  0  0  0  0  0  0  0
   -2.9920   14.9560   -1.7340 C   0  0  0  0  0  0  0  0  0  0  0  0
   -3.3210   15.1290   -0.4050 C   0  0  0  0  0  0  0  0  0  0  0  0
   -4.3380   14.7360   -2.3340 C   0  0  0  0  0  0  0  0  0  0  0  0
   -4.5930   15.0960    0.2750 C   0  0  0  0  0  0  0  0  0  0  0  0
   -5.5610   14.9280   -1.8570 C   0  0  0  0  0  0  0  0  0  0  0  0
   -5.8050   15.4290   -0.5160 C   0  0  1  0  0  0  0  0  0  0  0  0
   -4.6720   14.7740    1.5630 C   0  0  0  0  0  0  0  0  0  0  0  0
   -7.0980   14.8610    0.1370 C   0  0  0  0  0  0  0  0  0  0  0  0
   -6.0190   14.7570    2.1540 C   0  0  0  0  0  0  0  0  0  0  0  0
   -8.0600   14.5140   -0.5380 O   0  0  0  0  0  0  0  0  0  0  0  0
   -7.1390   14.7870    1.5170 N   0  0  0  0  0  0  0  0  0  0  0  0
  1  2  1  0
  2  3  2  0
  2  4  1  0
  4  5  1  0
  5  6  1  0
  6  7  1  0
  6  8  2  0
  7  9  2  3
  7 10  1  0
  8 11  1  0
  9 12  1  0
 10 13  1  0
 11 13  2  0
 11 14  1  0
 12 15  1  0
 14 16  2  0
 13 17  1  0
 16 18  1  0
 17 18  2  0
 15 19  1  0
 19 20  2  0
 19 21  1  0
 20 22  1  0
 21 23  2  0
 22 24  1  0
 24 23  1  6
 22 25  2  0
 24 26  1  0
 25 27  1  0
 26 28  2  0
 26 29  1  0
 27 29  2  0
M  END
