mac-x0159-mac-x0404
     RDKit          3D

 26 29  0  0  0  0  0  0  0  0999 V2000
   -4.5210   15.2120    0.8980 N   0  0  0  0  0  0  0  0  0  0  0  0
   -3.4820   14.6870    0.0300 C   0  0  2  0  0  0  0  0  0  0  0  0
   -2.1050   15.3070    0.2450 C   0  0  2  0  0  0  0  0  0  0  0  0
   -3.9270   14.8570   -1.3480 N   0  0  0  0  0  0  0  0  0  0  0  0
   -2.9240   15.5350   -2.1970 C   0  0  0  0  0  0  0  0  0  0  0  0
   -1.1770   14.7460   -0.8040 C   0  0  1  0  0  0  0  0  0  0  0  0
   -1.3060   15.0030    1.4350 N   0  0  0  0  0  0  0  0  0  0  0  0
   -1.5800   14.9350   -2.1680 N   0  0  0  0  0  0  0  0  0  0  0  0
   -0.0070   15.4450   -0.4270 N   0  0  0  0  0  0  0  0  0  0  0  0
    0.0490   14.8820    0.9000 C   0  0  0  0  0  0  0  0  0  0  0  0
   -0.4970   15.7570   -2.7500 C   0  0  0  0  0  0  0  0  0  0  0  0
   -0.2300   15.9070   -4.2810 C   0  0  2  0  0  0  0  0  0  0  0  0
    1.0300   16.6920   -4.3280 C   0  0  0  0  0  0  0  0  0  0  0  0
   -1.3130   16.6010   -5.0940 N   0  0  0  0  0  0  0  0  0  0  0  0
    0.0830   14.5470   -4.9410 C   0  0  1  0  0  0  0  0  0  0  0  0
    1.1380   13.9140   -4.1950 O   0  0  0  0  0  0  0  0  0  0  0  0
   -0.8940   17.7650   -5.9470 C   0  0  2  0  0  0  0  0  0  0  0  0
    0.7970   18.0260   -5.4050 S   0  0  0  0  0  0  0  0  0  0  0  0
   -2.4350   15.8090   -5.3420 C   0  0  0  0  0  0  0  0  0  0  0  0
   -1.1860   13.6740   -4.8930 C   0  0  0  0  0  0  0  0  0  0  0  0
   -1.6920   19.0390   -5.8010 C   0  0  0  0  0  0  0  0  0  0  0  0
    1.2990   12.5320   -4.4360 C   0  0  0  0  0  0  0  0  0  0  0  0
   -2.4240   14.4610   -5.2610 C   0  0  0  0  0  0  0  0  0  0  0  0
    0.9550   11.8530   -3.1250 C   0  0  0  0  0  0  0  0  0  0  0  0
    1.3700   12.5730   -2.0580 O   0  0  0  0  0  0  0  0  0  0  0  0
    0.3730   10.7900   -3.0160 O   0  0  0  0  0  0  0  0  0  0  0  0
  2  1  1  1
  2  3  1  0
  2  4  1  0
  4  5  1  0
  3  6  1  0
  3  7  1  1
  5  8  1  0
  6  8  1  0
  6  9  1  6
  7 10  1  0
  9 10  1  0
  8 11  1  0
 12 11  1  1
 12 13  1  0
 12 14  1  0
 12 15  1  0
 15 16  1  1
 14 17  1  0
 13 18  2  0
 17 18  1  0
 14 19  1  0
 15 20  1  0
 17 21  1  1
 16 22  1  0
 19 23  2  0
 20 23  1  0
 22 24  1  0
 24 25  1  0
 24 26  2  0
M  END
