mac-x0357-diamond-x0805_0_A
     RDKit          3D

 26 28  0  0  0  0  0  0  0  0999 V2000
    2.3330   12.7500   -4.7880 C   0  0  0  0  0  0  0  0  0  0  0  0
    0.9720   12.1080   -4.9670 C   0  0  0  0  0  0  0  0  0  0  0  0
    0.7710   11.6570   -6.2210 C   0  0  0  0  0  0  0  0  0  0  0  0
   -0.0090   11.9770   -3.9490 C   0  0  0  0  0  0  0  0  0  0  0  0
    1.7660   11.7810   -7.1660 O   0  0  0  0  0  0  0  0  0  0  0  0
    0.2550   12.5240   -2.3870 S   0  0  0  0  0  0  0  0  0  0  0  0
   -1.1510   11.3760   -4.3870 C   0  0  0  0  0  0  0  0  0  0  0  0
   -0.4030   11.0680   -6.5610 C   0  0  0  0  0  0  0  0  0  0  0  0
    0.4680   13.0130   -1.1770 O   0  0  0  0  0  0  0  0  0  0  0  0
    2.0610   12.2070   -2.3650 O   0  0  0  0  0  0  0  0  0  0  0  0
   -0.5900   11.4080   -1.9670 O   0  0  0  0  0  0  0  0  0  0  0  0
   -1.3740   10.9280   -5.6420 C   0  0  0  0  0  0  0  0  0  0  0  0
    0.3440   13.9930   -3.0750 C   0  0  1  0  0  0  0  0  0  0  0  0
    1.5880   14.0010   -3.9640 C   0  0  0  0  0  0  0  0  0  0  0  0
   -0.6930   14.4200   -4.0190 C   0  0  1  0  0  0  0  0  0  0  0  0
   -1.9380   14.2620   -3.2960 C   0  0  0  0  0  0  0  0  0  0  0  0
    2.0630   15.2520   -3.8980 O   0  0  0  0  0  0  0  0  0  0  0  0
   -0.3080   15.8210   -4.4950 C   0  0  0  0  0  0  0  0  0  0  0  0
   -3.0060   13.5690   -3.8010 C   0  0  0  0  0  0  0  0  0  0  0  0
   -2.0420   14.8140   -2.0490 C   0  0  0  0  0  0  0  0  0  0  0  0
    1.1870   16.0510   -4.6440 C   0  0  0  0  0  0  0  0  0  0  0  0
   -3.1440   14.7340   -1.2640 C   0  0  0  0  0  0  0  0  0  0  0  0
   -4.1440   13.4600   -3.0320 C   0  0  0  0  0  0  0  0  0  0  0  0
   -3.1920   15.3230   -0.0080 O   0  0  0  0  0  0  0  0  0  0  0  0
   -4.2170   14.0390   -1.7700 C   0  0  0  0  0  0  0  0  0  0  0  0
   -4.3970   15.4660    0.7070 C   0  0  0  0  0  0  0  0  0  0  0  0
  1  2  1  0
  2  3  2  0
  2  4  1  0
  3  5  1  0
  4  6  1  0
  4  7  2  0
  3  8  1  0
  6  9  2  0
  6 10  1  0
  6 11  1  0
  7 12  1  0
  8 12  2  0
 13  6  1  6
 13 14  1  0
 13 15  1  0
 15 16  1  1
 14 17  1  0
 15 18  1  0
 16 19  2  0
 16 20  1  0
 17 21  1  0
 18 21  1  0
 20 22  2  0
 19 23  1  0
 22 24  1  0
 22 25  1  0
 23 25  2  0
 24 26  1  0
M  END
