mac-x0333-mac-x0338
     RDKit          3D

 13 14  0  0  0  0  0  0  0  0999 V2000
   -2.5620   15.1800   -2.8820 O   0  0  0  0  0  0  0  0  0  0  0  0
   -3.5890   15.1130   -1.9790 C   0  0  0  0  0  0  0  0  0  0  0  0
   -3.2700   15.1800   -0.6200 C   0  0  0  0  0  0  0  0  0  0  0  0
   -4.9130   14.9800   -2.3940 C   0  0  0  0  0  0  0  0  0  0  0  0
   -5.8850   14.9160   -1.4120 C   0  0  0  0  0  0  0  0  0  0  0  0
   -4.2990   15.1200    0.3160 C   0  0  0  0  0  0  0  0  0  0  0  0
   -4.1170   15.1910    1.7380 C   0  0  0  0  0  0  0  0  0  0  0  0
   -5.5750   14.9840   -0.0910 C   0  0  0  0  0  0  0  0  0  0  0  0
   -7.2210   14.7810   -1.6100 O   0  0  0  0  0  0  0  0  0  0  0  0
   -3.0380   14.5540    2.2230 N   0  0  0  0  0  0  0  0  0  0  0  0
   -4.9120   15.7740    2.4400 O   0  0  0  0  0  0  0  0  0  0  0  0
   -6.6680   14.8990    0.7120 O   0  0  0  0  0  0  0  0  0  0  0  0
   -7.7100   14.7510   -0.2520 C   0  0  0  0  0  0  0  0  0  0  0  0
  1  2  1  0
  2  3  2  0
  2  4  1  0
  4  5  2  0
  3  6  1  0
  6  7  1  0
  5  8  1  0
  6  8  2  0
  5  9  1  0
  7 10  1  0
  7 11  2  0
  8 12  1  0
  9 13  1  0
 12 13  1  0
M  END
