mac-x0337-diamond-x0849_0_A
     RDKit          3D

 21 23  0  0  0  0  0  0  0  0999 V2000
   -5.3250    8.8280   -2.2970 C   0  0  0  0  0  0  0  0  0  0  0  0
   -5.1690   10.3040   -2.0840 C   0  0  0  0  0  0  0  0  0  0  0  0
   -6.1100   10.9890   -1.3150 C   0  0  0  0  0  0  0  0  0  0  0  0
   -4.0870   10.9980   -2.6540 C   0  0  0  0  0  0  0  0  0  0  0  0
   -3.9550   12.3720   -2.4660 C   0  0  0  0  0  0  0  0  0  0  0  0
   -5.9830   12.3470   -1.1270 C   0  0  0  0  0  0  0  0  0  0  0  0
   -4.9200   13.0270   -1.7040 C   0  0  0  0  0  0  0  0  0  0  0  0
   -4.8870   14.7390   -1.3980 S   0  0  2  0  0  0  0  0  0  0  0  0
   -3.6600   15.4620   -1.8490 N   0  0  0  0  0  0  0  0  0  0  0  0
   -5.1960   14.7450    0.0000 O   0  0  0  0  0  0  0  0  0  0  0  0
   -6.1810   15.6070   -1.9790 N   0  0  0  0  0  0  0  0  0  0  0  0
   -3.2870   15.3380   -0.4850 C   0  0  0  0  0  0  0  0  0  0  0  0
   -2.1150   14.8040   -0.0110 C   0  0  0  0  0  0  0  0  0  0  0  0
   -4.2910   15.7910    0.3550 C   0  0  0  0  0  0  0  0  0  0  0  0
   -2.0500   14.7370    1.3630 C   0  0  0  0  0  0  0  0  0  0  0  0
   -4.0900   15.6680    1.6830 C   0  0  0  0  0  0  0  0  0  0  0  0
   -1.0340   14.3350   -0.7690 C   0  0  0  0  0  0  0  0  0  0  0  0
   -2.9770   15.1390    2.1610 N   0  0  0  0  0  0  0  0  0  0  0  0
   -1.0480   14.2560    1.9760 N   0  0  0  0  0  0  0  0  0  0  0  0
    0.0440   13.8160   -0.0960 C   0  0  0  0  0  0  0  0  0  0  0  0
   -0.0480   13.8040    1.2790 C   0  0  0  0  0  0  0  0  0  0  0  0
  1  2  1  0
  2  3  2  0
  2  4  1  0
  4  5  2  0
  3  6  1  0
  5  7  1  0
  6  7  2  0
  7  8  1  0
  8  9  2  0
  8 10  2  0
  8 11  1  6
  9 12  1  0
 12 13  1  0
 12 14  2  0
 13 15  2  0
 14 16  1  0
 13 17  1  0
 15 18  1  0
 16 18  2  0
 15 19  1  0
 17 20  2  0
 19 21  2  0
 20 21  1  0
M  END
