mac-x0228-diamond-x0950_1_A
     RDKit          3D

 20 21  0  0  0  0  0  0  0  0999 V2000
   -1.2420   14.7650   -1.9370 O   0  0  0  0  0  0  0  0  0  0  0  0
   -2.2580   14.9960   -2.7830 C   0  0  0  0  0  0  0  0  0  0  0  0
   -2.0340   15.2500   -4.0230 N   0  0  0  0  0  0  0  0  0  0  0  0
   -3.5520   14.9540   -2.1090 C   0  0  0  0  0  0  0  0  0  0  0  0
   -0.7200   15.3420   -4.6470 C   0  0  0  0  0  0  0  0  0  0  0  0
   -3.6960   14.7490   -0.7340 C   0  0  0  0  0  0  0  0  0  0  0  0
   -4.6650   15.1430   -2.9330 C   0  0  0  0  0  0  0  0  0  0  0  0
    0.3550   14.7020   -3.7980 C   0  0  0  0  0  0  0  0  0  0  0  0
   -4.9890   14.7470   -0.2300 C   0  0  0  0  0  0  0  0  0  0  0  0
   -5.9500   15.1430   -2.4060 C   0  0  0  0  0  0  0  0  0  0  0  0
    1.4340   14.0110   -4.6240 C   0  0  0  0  0  0  0  0  0  0  0  0
   -6.0860   14.9460   -1.0560 C   0  0  0  0  0  0  0  0  0  0  0  0
   -5.4580   14.5510    1.1520 C   0  0  0  0  0  0  0  0  0  0  0  0
    1.5290   12.5090   -4.4460 C   0  0  2  0  0  0  0  0  0  0  0  0
   -7.2890   14.9220   -0.4000 O   0  0  0  0  0  0  0  0  0  0  0  0
   -6.9600   14.3880    0.9010 C   0  0  0  0  0  0  0  0  0  0  0  0
    0.7780   11.7950   -5.4440 O   0  0  0  0  0  0  0  0  0  0  0  0
    1.0630   12.0530   -3.0600 C   0  0  0  0  0  0  0  0  0  0  0  0
    0.3320   11.1000   -2.8330 O   0  0  0  0  0  0  0  0  0  0  0  0
    1.5780   12.8500   -2.0910 O   0  0  0  0  0  0  0  0  0  0  0  0
  1  2  1  0
  2  3  2  3
  2  4  1  0
  3  5  1  0
  4  6  2  0
  4  7  1  0
  5  8  1  0
  6  9  1  0
  7 10  2  0
  8 11  1  0
  9 12  2  0
 10 12  1  0
  9 13  1  0
 11 14  1  0
 12 15  1  0
 13 16  1  0
 15 16  1  0
 14 17  1  6
 14 18  1  0
 18 19  2  0
 18 20  1  0
M  END
