mac-x0303-mac-x0204
     RDKit          3D

 25 27  0  0  0  0  0  0  0  0999 V2000
   -8.6250   13.0700    2.6030 N   0  0  0  0  0  0  0  0  0  0  0  0
   -8.6520   14.6050    1.8980 S   0  0  0  0  0  0  0  0  0  0  0  0
   -8.4960   15.5570    2.9720 O   0  0  0  0  0  0  0  0  0  0  0  0
   -9.7710   14.6210    0.9930 O   0  0  0  0  0  0  0  0  0  0  0  0
   -7.1580   14.6940    0.9660 C   0  0  0  0  0  0  0  0  0  0  0  0
   -7.0550   15.0930   -0.3540 N   0  0  0  0  0  0  0  0  0  0  0  0
   -5.9880   14.3860    1.4490 N   0  0  0  0  0  0  0  0  0  0  0  0
   -5.7170   15.0230   -0.7080 C   0  0  0  0  0  0  0  0  0  0  0  0
   -5.1020   14.5760    0.4420 C   0  0  0  0  0  0  0  0  0  0  0  0
   -4.9980   15.2910   -1.8740 C   0  0  0  0  0  0  0  0  0  0  0  0
   -3.7340   14.3640    0.4860 C   0  0  0  0  0  0  0  0  0  0  0  0
   -3.5990   15.0670   -1.8240 C   0  0  0  0  0  0  0  0  0  0  0  0
   -2.9620   14.5940   -0.6420 C   0  0  0  0  0  0  0  0  0  0  0  0
   -1.4750   14.2890   -0.4780 C   0  0  0  0  0  0  0  0  0  0  0  0
   -0.5300   14.9120   -1.5030 C   0  0  0  0  0  0  0  0  0  0  0  0
    0.0550   14.0970   -2.6480 C   0  0  0  0  0  0  0  0  0  0  0  0
    0.4340   12.8020   -2.1970 O   0  0  0  0  0  0  0  0  0  0  0  0
    1.2540   14.7250   -3.0590 O   0  0  0  0  0  0  0  0  0  0  0  0
   -0.9750   14.0250   -3.7490 C   0  0  0  0  0  0  0  0  0  0  0  0
   -1.4370   15.1910   -4.3810 C   0  0  0  0  0  0  0  0  0  0  0  0
   -1.5240   12.8190   -4.1820 C   0  0  0  0  0  0  0  0  0  0  0  0
   -2.3990   15.1100   -5.3750 C   0  0  0  0  0  0  0  0  0  0  0  0
   -2.4610   12.7130   -5.1510 N   0  0  0  0  0  0  0  0  0  0  0  0
   -2.8720   16.2310   -6.0060 O   0  0  0  0  0  0  0  0  0  0  0  0
   -2.8800   13.8620   -5.7260 C   0  0  0  0  0  0  0  0  0  0  0  0
  2  1  1  0
  2  3  2  0
  2  4  2  0
  2  5  1  0
  5  6  1  0
  5  7  2  0
  6  8  1  0
  7  9  1  0
  8  9  2  0
  8 10  1  0
  9 11  1  0
 10 12  2  0
 11 13  2  0
 12 13  1  0
 13 14  1  0
 14 15  1  0
 15 16  1  0
 16 17  1  0
 16 18  1  0
 16 19  1  0
 19 20  2  0
 19 21  1  0
 20 22  1  0
 21 23  2  0
 22 24  1  0
 22 25  2  0
 23 25  1  0
M  END
