mac-x0138-mac-x0123
     RDKit          3D

 19 22  0  0  0  0  0  0  0  0999 V2000
   -1.7960   14.7340   -3.1550 C   0  0  0  0  0  0  0  0  0  0  0  0
   -2.5380   15.0410   -1.9200 N   0  0  0  0  0  0  0  0  0  0  0  0
   -3.9170   14.5350   -1.9810 C   0  0  0  0  0  0  0  0  0  0  0  0
   -1.9770   14.4260   -0.7470 C   0  0  2  0  0  0  0  0  0  0  0  0
   -4.9090   15.2160   -1.1100 N   0  0  0  0  0  0  0  0  0  0  0  0
   -2.6870   14.8720    0.5590 C   0  0  1  0  0  0  0  0  0  0  0  0
   -0.6110   14.8170   -0.4910 N   0  0  0  0  0  0  0  0  0  0  0  0
   -3.8910   14.2440    0.9350 N   0  0  0  0  0  0  0  0  0  0  0  0
   -1.7290   14.6270    1.5700 N   0  0  0  0  0  0  0  0  0  0  0  0
   -0.4700   14.7470    0.9350 C   0  0  1  0  0  0  0  0  0  0  0  0
   -4.9360   15.0650    0.3940 C   0  0  2  0  0  0  0  0  0  0  0  0
   -6.1990   15.1840   -1.7630 C   0  0  0  0  0  0  0  0  0  0  0  0
    0.1890   13.5750    1.2590 N   0  0  0  0  0  0  0  0  0  0  0  0
   -7.0720   14.2010   -1.1550 N   0  0  0  0  0  0  0  0  0  0  0  0
   -6.2530   14.7010    1.1390 C   0  0  1  0  0  0  0  0  0  0  0  0
   -7.4480   14.6880    0.1750 C   0  0  2  0  0  0  0  0  0  0  0  0
   -6.4310   13.4250    1.9040 C   0  0  0  0  0  0  0  0  0  0  0  0
   -8.5120   13.8690    0.9240 C   0  0  0  0  0  0  0  0  0  0  0  0
   -7.6880   12.9770    1.7940 C   0  0  0  0  0  0  0  0  0  0  0  0
  1  2  1  0
  2  3  1  0
  2  4  1  0
  3  5  1  0
  4  6  1  0
  4  7  1  1
  6  8  1  1
  6  9  1  0
  7 10  1  0
  9 10  1  0
  5 11  1  0
 11  8  1  6
  5 12  1  0
 10 13  1  6
 12 14  1  0
 11 15  1  0
 14 16  1  0
 15 16  1  0
 15 17  1  6
 16 18  1  1
 17 19  2  0
 18 19  1  0
M  END
