mac-x0338-diamond-x0685_1_A
     RDKit          3D

 24 25  0  0  0  0  0  0  0  0999 V2000
   -4.3460   15.4770    2.0590 N   0  0  0  0  0  0  0  0  0  0  0  0
   -5.2390   15.1190    1.1040 C   0  0  0  0  0  0  0  0  0  0  0  0
   -6.3970   14.8170    1.3630 O   0  0  0  0  0  0  0  0  0  0  0  0
   -4.7020   15.1290   -0.2650 C   0  0  0  0  0  0  0  0  0  0  0  0
   -3.3520   15.2150   -0.3730 N   0  0  0  0  0  0  0  0  0  0  0  0
   -5.5460   15.0520   -1.3510 C   0  0  0  0  0  0  0  0  0  0  0  0
   -2.8570   15.2310   -1.6260 C   0  0  0  0  0  0  0  0  0  0  0  0
   -5.0660   15.0590   -2.6170 N   0  0  0  0  0  0  0  0  0  0  0  0
   -1.3580   15.3350   -1.8010 C   0  0  0  0  0  0  0  0  0  0  0  0
   -3.7150   15.1510   -2.7260 C   0  0  0  0  0  0  0  0  0  0  0  0
   -0.7380   14.2970   -2.7270 C   0  0  0  0  0  0  0  0  0  0  0  0
   -0.0530   13.2880   -1.9850 O   0  0  0  0  0  0  0  0  0  0  0  0
    0.6950   12.1600   -2.8450 S   0  0  0  0  0  0  0  0  0  0  0  0
    0.1170   12.3360   -4.5250 C   0  0  0  0  0  0  0  0  0  0  0  0
    2.2850   12.3450   -2.9030 O   0  0  0  0  0  0  0  0  0  0  0  0
    0.2980   10.6700   -2.3560 O   0  0  0  0  0  0  0  0  0  0  0  0
   -1.3430   11.9460   -4.7330 C   0  0  0  0  0  0  0  0  0  0  0  0
   -1.6390   10.5310   -4.9840 N   0  0  0  0  0  0  0  0  0  0  0  0
   -1.4990   10.0080   -6.3490 C   0  0  0  0  0  0  0  0  0  0  0  0
   -0.1920    9.2820   -6.6120 C   0  0  0  0  0  0  0  0  0  0  0  0
   -1.6320   11.1490   -7.3770 C   0  0  0  0  0  0  0  0  0  0  0  0
   -0.1970    8.5550   -7.9500 C   0  0  0  0  0  0  0  0  0  0  0  0
   -1.1270   10.7670   -8.7740 C   0  0  0  0  0  0  0  0  0  0  0  0
   -1.0570    9.2570   -9.0020 C   0  0  0  0  0  0  0  0  0  0  0  0
  1  2  1  0
  2  3  2  0
  2  4  1  0
  4  5  2  0
  4  6  1  0
  5  7  1  0
  6  8  2  0
  7  9  1  0
  7 10  2  0
  8 10  1  0
  9 11  1  0
 11 12  1  0
 13 12  1  0
 13 14  1  0
 13 15  1  0
 13 16  1  0
 14 17  1  0
 17 18  1  0
 18 19  1  0
 19 20  1  0
 19 21  1  0
 20 22  1  0
 21 23  1  0
 22 24  1  0
 23 24  1  0
M  END
