mac-x0204-mac-x0163
     RDKit          3D

 25 27  0  0  0  0  0  0  0  0999 V2000
    1.4540   13.7910   -3.7140 O   0  0  0  0  0  0  0  0  0  0  0  0
    0.7080   14.9110   -3.8480 C   0  0  0  0  0  0  0  0  0  0  0  0
    1.0920   15.9540   -3.3670 O   0  0  0  0  0  0  0  0  0  0  0  0
   -0.5530   14.6770   -4.6020 C   0  0  0  0  0  0  0  0  0  0  0  0
   -1.3920   15.7460   -4.9500 C   0  0  0  0  0  0  0  0  0  0  0  0
   -0.9490   13.3920   -4.9840 C   0  0  0  0  0  0  0  0  0  0  0  0
   -2.5690   15.4970   -5.6490 C   0  0  0  0  0  0  0  0  0  0  0  0
   -2.1040   13.1360   -5.6720 N   0  0  0  0  0  0  0  0  0  0  0  0
   -0.1270   12.1930   -4.6410 C   0  0  0  0  0  0  0  0  0  0  0  0
   -3.3580   16.5460   -5.9790 O   0  0  0  0  0  0  0  0  0  0  0  0
   -2.8850   14.1890   -5.9860 C   0  0  0  0  0  0  0  0  0  0  0  0
   -0.3980   11.8620   -3.1750 C   0  0  1  0  0  0  0  0  0  0  0  0
    0.1120   12.9550   -2.2080 C   0  0  0  0  0  0  0  0  0  0  0  0
   -1.8990   11.6650   -2.9570 C   0  0  0  0  0  0  0  0  0  0  0  0
   -0.8340   14.1010   -2.0700 N   0  0  0  0  0  0  0  0  0  0  0  0
   -2.7440   12.9400   -3.0820 C   0  0  0  0  0  0  0  0  0  0  0  0
   -1.2440   14.2950   -0.7310 C   0  0  0  0  0  0  0  0  0  0  0  0
   -1.9170   14.2100   -3.0530 C   0  0  0  0  0  0  0  0  0  0  0  0
   -2.5250   14.7370   -0.3310 C   0  0  0  0  0  0  0  0  0  0  0  0
   -0.2880   14.0170    0.1680 N   0  0  0  0  0  0  0  0  0  0  0  0
   -3.8360   15.1310   -1.3950 Cl  0  0  0  0  0  0  0  0  0  0  0  0
   -2.7200   14.8580    1.0360 C   0  0  0  0  0  0  0  0  0  0  0  0
   -0.5930   14.1680    1.4520 C   0  0  0  0  0  0  0  0  0  0  0  0
   -3.9390   15.2920    1.5720 N   0  0  0  0  0  0  0  0  0  0  0  0
   -1.7690   14.5700    1.9320 N   0  0  0  0  0  0  0  0  0  0  0  0
  1  2  1  0
  2  3  2  0
  2  4  1  0
  4  5  2  0
  4  6  1  0
  5  7  1  0
  6  8  2  0
  6  9  1  0
  7 10  1  0
  7 11  2  0
  8 11  1  0
 12  9  1  6
 12 13  1  0
 12 14  1  0
 13 15  1  0
 14 16  1  0
 15 17  1  0
 15 18  1  0
 16 18  1  0
 17 19  2  0
 17 20  1  0
 19 21  1  0
 19 22  1  0
 20 23  2  0
 22 24  1  0
 22 25  2  0
 23 25  1  0
M  END
