mac-x0277-mac-x0231
     RDKit          3D

 16 17  0  0  0  0  0  0  0  0999 V2000
   -1.1950   18.5250   -5.0400 Cl  0  0  0  0  0  0  0  0  0  0  0  0
   -0.5610   16.9600   -4.6660 C   0  0  0  0  0  0  0  0  0  0  0  0
   -1.4610   15.7640   -4.8750 C   0  0  1  0  0  0  0  0  0  0  0  0
    0.7070   16.8120   -4.2290 C   0  0  0  0  0  0  0  0  0  0  0  0
   -2.7690   16.2790   -6.0270 Cl  0  0  0  0  0  0  0  0  0  0  0  0
   -0.5450   14.5290   -5.2900 C   0  0  1  0  0  0  0  0  0  0  0  0
    1.2610   15.5000   -3.9340 C   0  0  0  0  0  0  0  0  0  0  0  0
   -2.4700   15.3390   -3.8650 C   0  0  0  0  0  0  0  0  0  0  0  0
    0.6900   14.3740   -4.4180 C   0  0  0  0  0  0  0  0  0  0  0  0
   -2.9810   14.1140   -3.9350 C   0  0  0  0  0  0  0  0  0  0  0  0
   -1.3930   13.3200   -5.5760 C   0  0  0  0  0  0  0  0  0  0  0  0
    1.2380   12.9900   -4.1560 C   0  0  0  0  0  0  0  0  0  0  0  0
   -2.5510   13.1620   -4.9390 C   0  0  0  0  0  0  0  0  0  0  0  0
    0.9090   12.4230   -2.7920 C   0  0  0  0  0  0  0  0  0  0  0  0
    0.3760   11.1820   -2.8070 O   0  0  0  0  0  0  0  0  0  0  0  0
    1.1020   13.0310   -1.7550 O   0  0  0  0  0  0  0  0  0  0  0  0
  1  2  1  0
  2  3  1  0
  2  4  2  0
  3  5  1  6
  3  6  1  0
  4  7  1  0
  3  8  1  0
  6  9  1  0
  7  9  2  0
  8 10  2  0
  6 11  1  1
  9 12  1  0
 10 13  1  0
 11 13  2  0
 12 14  1  0
 14 15  1  0
 14 16  2  0
M  END
