mac-x0328-diamond-x0662_0_A
     RDKit          3D

 31 33  0  0  0  0  0  0  0  0999 V2000
   -1.6950   14.6260   -3.6680 O   0  0  0  0  0  0  0  0  0  0  0  0
   -1.9080   14.2560   -2.3190 C   0  0  0  0  0  0  0  0  0  0  0  0
   -0.9490   14.9900   -1.5650 O   0  0  0  0  0  0  0  0  0  0  0  0
   -1.6350   12.7510   -2.0570 C   0  0  0  0  0  0  0  0  0  0  0  0
   -3.3140   14.6290   -1.8580 C   0  0  0  0  0  0  0  0  0  0  0  0
   -0.3270   12.0960   -2.5240 C   0  0  0  0  0  0  0  0  0  0  0  0
   -3.6090   14.7190   -0.4800 C   0  0  0  0  0  0  0  0  0  0  0  0
   -4.3520   14.8710   -2.7720 C   0  0  0  0  0  0  0  0  0  0  0  0
    0.1360   12.5160   -3.9120 C   0  0  0  0  0  0  0  0  0  0  0  0
   -4.8950   15.0270   -0.0360 C   0  0  0  0  0  0  0  0  0  0  0  0
   -5.6360   15.1770   -2.3270 C   0  0  0  0  0  0  0  0  0  0  0  0
   -0.3550   11.5890   -4.9310 N   0  0  0  0  0  0  0  0  0  0  0  0
   -5.9030   15.2480   -0.9690 C   0  0  0  0  0  0  0  0  0  0  0  0
   -7.1600   15.5340   -0.5380 O   0  0  0  0  0  0  0  0  0  0  0  0
    0.3510   11.4850   -5.9940 C   0  0  0  0  0  0  0  0  0  0  0  0
    1.4090   12.0910   -6.2340 O   0  0  0  0  0  0  0  0  0  0  0  0
    0.0770   10.6100   -7.1820 C   0  0  0  0  0  0  0  0  0  0  0  0
   -0.9020    9.6200   -7.1490 C   0  0  0  0  0  0  0  0  0  0  0  0
    0.8310   10.7980   -8.3420 C   0  0  0  0  0  0  0  0  0  0  0  0
   -1.1150    8.8310   -8.2830 C   0  0  0  0  0  0  0  0  0  0  0  0
    0.6290   10.0170   -9.4830 C   0  0  0  0  0  0  0  0  0  0  0  0
    1.4360   10.2700  -10.6190 N   0  0  0  0  0  0  0  0  0  0  0  0
   -0.3530    9.0300   -9.4430 C   0  0  0  0  0  0  0  0  0  0  0  0
    2.2210    9.3700  -11.3210 C   0  0  0  0  0  0  0  0  0  0  0  0
    2.4030    8.1940  -11.0370 O   0  0  0  0  0  0  0  0  0  0  0  0
    2.8890    9.9460  -12.5100 C   0  0  0  0  0  0  0  0  0  0  0  0
    2.6980   11.2130  -13.1340 C   0  0  0  0  0  0  0  0  0  0  0  0
    3.8420    9.2400  -13.1620 N   0  0  0  0  0  0  0  0  0  0  0  0
    4.2350   10.0450  -14.1610 N   0  0  0  0  0  0  0  0  0  0  0  0
    3.5790   11.2410  -14.1890 C   0  0  0  0  0  0  0  0  0  0  0  0
    5.2650    9.5810  -15.0550 C   0  0  0  0  0  0  0  0  0  0  0  0
  2  1  1  0
  2  3  1  0
  2  4  1  0
  2  5  1  0
  4  6  1  0
  5  7  2  0
  5  8  1  0
  6  9  1  0
  7 10  1  0
  8 11  2  0
  9 12  1  0
 10 13  2  0
 11 13  1  0
 13 14  1  0
 12 15  2  3
 15 16  1  0
 15 17  1  0
 17 18  2  0
 17 19  1  0
 18 20  1  0
 19 21  2  0
 21 22  1  0
 20 23  2  0
 21 23  1  0
 22 24  1  0
 24 25  2  0
 24 26  1  0
 26 27  1  0
 26 28  2  0
 28 29  1  0
 27 30  2  0
 29 30  1  0
 29 31  1  0
M  CHG  1  16  -1
M  END
