mac-x0182-mac-x0213
     RDKit          3D

 23 26  0  0  0  0  0  0  0  0999 V2000
    1.7970   11.5420   -7.1830 O   0  0  0  0  0  0  0  0  0  0  0  0
    0.7690   11.4480   -6.6110 C   0  0  0  0  0  0  0  0  0  0  0  0
    0.3440   12.3070   -5.6730 N   0  0  0  0  0  0  0  0  0  0  0  0
   -0.1670   10.3260   -6.8110 C   0  0  0  0  0  0  0  0  0  0  0  0
   -0.7850   11.5600   -4.7030 S   0  0  2  0  0  0  0  0  0  0  0  0
   -1.0930   10.2440   -5.7890 C   0  0  0  0  0  0  0  0  0  0  0  0
   -0.1800    9.4240   -7.8560 C   0  0  0  0  0  0  0  0  0  0  0  0
   -1.8930   12.4540   -4.8600 O   0  0  0  0  0  0  0  0  0  0  0  0
    0.0380   11.3450   -3.4410 N   0  0  0  0  0  0  0  0  0  0  0  0
   -2.0670    9.2650   -5.7360 C   0  0  0  0  0  0  0  0  0  0  0  0
   -1.1590    8.4250   -7.8390 C   0  0  0  0  0  0  0  0  0  0  0  0
    0.2760   12.5960   -2.8150 C   0  0  0  0  0  0  0  0  0  0  0  0
   -2.0920    8.3450   -6.7860 C   0  0  0  0  0  0  0  0  0  0  0  0
    0.5930   12.7100   -1.6160 O   0  0  0  0  0  0  0  0  0  0  0  0
    0.0570   13.8160   -3.7450 C   0  0  0  0  0  0  0  0  0  0  0  0
   -1.3920   14.3430   -3.6960 C   0  0  0  0  0  0  0  0  0  0  0  0
    0.9210   15.0780   -3.5240 C   0  0  0  0  0  0  0  0  0  0  0  0
   -1.2340   15.6580   -4.3830 C   0  0  0  0  0  0  0  0  0  0  0  0
    0.0920   16.0910   -4.2870 C   0  0  0  0  0  0  0  0  0  0  0  0
   -2.2020   16.4080   -5.0390 C   0  0  0  0  0  0  0  0  0  0  0  0
    0.4720   17.3020   -4.8530 C   0  0  0  0  0  0  0  0  0  0  0  0
   -1.8220   17.6220   -5.6100 C   0  0  0  0  0  0  0  0  0  0  0  0
   -0.4940   18.0640   -5.5150 C   0  0  0  0  0  0  0  0  0  0  0  0
  1  2  2  0
  2  3  1  0
  2  4  1  0
  5  3  1  6
  4  6  2  0
  5  6  1  0
  4  7  1  0
  5  8  2  0
  5  9  2  0
  6 10  1  0
  7 11  2  0
  9 12  1  0
 10 13  2  0
 11 13  1  0
 12 14  2  0
 12 15  1  0
 15 16  1  0
 15 17  1  0
 16 18  1  0
 17 19  1  0
 18 19  2  0
 18 20  1  0
 19 21  1  0
 20 22  2  0
 21 23  2  0
 22 23  1  0
M  END
