mac-x0417-mac-x0527
     RDKit          3D

 30 33  0  0  0  0  0  0  0  0999 V2000
    2.0360   12.7740   -2.1570 O   0  0  0  0  0  0  0  0  0  0  0  0
    1.5530   12.5460   -3.3900 C   0  0  0  0  0  0  0  0  0  0  0  0
    0.9780   11.5110   -3.6610 O   0  0  0  0  0  0  0  0  0  0  0  0
    1.7610   13.6710   -4.3900 C   0  0  0  0  0  0  0  0  0  0  0  0
    0.4490   14.4260   -4.6010 C   0  0  0  0  0  0  0  0  0  0  0  0
   -0.5490   14.0430   -3.4810 C   0  0  1  0  0  0  0  0  0  0  0  0
   -1.4460   15.1010   -2.9840 N   0  0  0  0  0  0  0  0  0  0  0  0
   -1.3630   12.7900   -3.7820 C   0  0  0  0  0  0  0  0  0  0  0  0
   -2.8460   15.0710   -2.9600 C   0  0  0  0  0  0  0  0  0  0  0  0
   -2.4640   12.5910   -2.9220 C   0  0  0  0  0  0  0  0  0  0  0  0
   -1.1910   11.7900   -4.7760 C   0  0  0  0  0  0  0  0  0  0  0  0
   -3.5380   15.0640   -3.9670 O   0  0  0  0  0  0  0  0  0  0  0  0
   -0.2870   11.5050   -5.8470 C   0  0  0  0  0  0  0  0  0  0  0  0
   -3.3260   11.5060   -3.0240 C   0  0  0  0  0  0  0  0  0  0  0  0
   -2.0740   10.7210   -4.8450 C   0  0  0  0  0  0  0  0  0  0  0  0
   -3.5000   15.0680   -1.5970 C   0  0  0  0  0  0  0  0  0  0  0  0
    0.8460   12.0740   -6.2650 N   0  0  0  0  0  0  0  0  0  0  0  0
   -0.6610   10.4000   -6.6050 C   0  0  0  0  0  0  0  0  0  0  0  0
   -3.1230   10.5680   -3.9960 C   0  0  0  0  0  0  0  0  0  0  0  0
   -4.8740   15.2670   -1.4990 C   0  0  0  0  0  0  0  0  0  0  0  0
   -2.7150   14.8660   -0.4880 N   0  0  0  0  0  0  0  0  0  0  0  0
    1.2140   11.2680   -7.3620 O   0  0  0  0  0  0  0  0  0  0  0  0
    0.2990   10.2720   -7.5510 C   0  0  0  0  0  0  0  0  0  0  0  0
   -1.7430    9.5000   -6.5520 C   0  0  0  0  0  0  0  0  0  0  0  0
   -5.5250   15.2720   -0.3020 N   0  0  0  0  0  0  0  0  0  0  0  0
   -3.3820   14.8750    0.6970 C   0  0  0  0  0  0  0  0  0  0  0  0
    0.2790    9.2660   -8.5130 C   0  0  0  0  0  0  0  0  0  0  0  0
   -1.8030    8.4840   -7.4890 C   0  0  0  0  0  0  0  0  0  0  0  0
   -4.7470   15.0720    0.7900 C   0  0  0  0  0  0  0  0  0  0  0  0
   -0.8070    8.3690   -8.4530 C   0  0  0  0  0  0  0  0  0  0  0  0
  1  2  1  0
  2  3  2  0
  2  4  1  0
  4  5  1  0
  6  5  1  6
  6  7  1  0
  6  8  1  0
  7  9  1  0
  8 10  2  0
  8 11  1  0
  9 12  2  0
 11 13  1  0
 10 14  1  0
 11 15  2  0
  9 16  1  0
 13 17  2  0
 13 18  1  0
 14 19  2  0
 15 19  1  0
 16 20  2  0
 16 21  1  0
 17 22  1  0
 18 23  2  0
 22 23  1  0
 18 24  1  0
 20 25  1  0
 21 26  2  0
 23 27  1  0
 24 28  2  0
 25 29  2  0
 26 29  1  0
 27 30  2  0
 28 30  1  0
M  END
