mac-x0348-mac-x0116
     RDKit          3D

 32 36  0  0  0  0  0  0  0  0999 V2000
   -0.0190   19.0020   -6.3790 C   0  0  0  0  0  0  0  0  0  0  0  0
   -0.2280   17.7040   -5.8070 N   0  0  0  0  0  0  0  0  0  0  0  0
    0.7420   16.9990   -5.2170 C   0  0  0  0  0  0  0  0  0  0  0  0
   -1.3950   17.0060   -5.7860 C   0  0  0  0  0  0  0  0  0  0  0  0
    0.2510   15.7990   -4.7960 C   0  0  0  0  0  0  0  0  0  0  0  0
   -1.1320   15.7860   -5.1440 C   0  0  0  0  0  0  0  0  0  0  0  0
   -2.6480   17.3240   -6.2790 C   0  0  0  0  0  0  0  0  0  0  0  0
    1.0770   14.7600   -4.1270 C   0  0  0  0  0  0  0  0  0  0  0  0
   -2.1820   14.8640   -4.9910 C   0  0  0  0  0  0  0  0  0  0  0  0
   -3.6600   16.3780   -6.1170 C   0  0  0  0  0  0  0  0  0  0  0  0
    0.5970   13.3120   -4.2810 C   0  0  0  0  0  0  0  0  0  0  0  0
   -3.4400   15.1750   -5.4840 C   0  0  0  0  0  0  0  0  0  0  0  0
    0.5300   12.8900   -2.8710 C   0  0  0  0  0  0  0  0  0  0  0  0
    0.5950   13.9140   -2.1110 N   0  0  0  0  0  0  0  0  0  0  0  0
    0.4280   11.5780   -2.5490 O   0  0  0  0  0  0  0  0  0  0  0  0
    0.5850   13.8730   -0.6930 C   0  0  0  0  0  0  0  0  0  0  0  0
   -0.6110   14.2030   -0.0020 N   0  0  0  0  0  0  0  0  0  0  0  0
   -1.8490   14.5330   -0.4760 C   0  0  0  0  0  0  0  0  0  0  0  0
   -0.6430   14.2150    1.3520 C   0  0  0  0  0  0  0  0  0  0  0  0
   -2.3010   14.6600   -1.7370 N   0  0  0  0  0  0  0  0  0  0  0  0
   -2.5810   14.7110    0.6800 C   0  0  0  0  0  0  0  0  0  0  0  0
   -1.8160   14.5160    1.8050 N   0  0  0  0  0  0  0  0  0  0  0  0
   -3.6120   14.9980   -1.7490 C   0  0  0  0  0  0  0  0  0  0  0  0
   -3.9240   15.0410    0.5540 C   0  0  0  0  0  0  0  0  0  0  0  0
   -4.6870   15.2000    1.7070 N   0  0  0  0  0  0  0  0  0  0  0  0
   -4.4390   15.1910   -0.6960 N   0  0  0  0  0  0  0  0  0  0  0  0
   -6.0780   14.7720    1.6320 C   0  0  0  0  0  0  0  0  0  0  0  0
   -6.3970   13.3230    1.6650 C   0  0  0  0  0  0  0  0  0  0  0  0
   -6.2980   12.6370    0.4900 O   0  0  0  0  0  0  0  0  0  0  0  0
   -6.8060   12.4840    2.6740 C   0  0  0  0  0  0  0  0  0  0  0  0
   -6.9740   11.2180    2.0910 C   0  0  0  0  0  0  0  0  0  0  0  0
   -6.6510   11.3600    0.7620 C   0  0  0  0  0  0  0  0  0  0  0  0
  1  2  1  0
  2  3  1  0
  2  4  1  0
  3  5  2  0
  4  6  2  0
  5  6  1  0
  4  7  1  0
  5  8  1  0
  6  9  1  0
  7 10  2  0
  8 11  1  0
  9 12  2  0
 10 12  1  0
 11 13  1  0
 13 14  2  3
 13 15  1  0
 14 16  1  0
 16 17  1  0
 17 18  1  0
 17 19  1  0
 18 20  2  0
 18 21  1  0
 19 22  2  0
 21 22  1  0
 20 23  1  0
 21 24  2  0
 24 25  1  0
 23 26  2  0
 24 26  1  0
 25 27  1  0
 27 28  1  0
 28 29  1  0
 28 30  2  0
 30 31  1  0
 29 32  1  0
 31 32  2  0
M  END
