mac-x0527-mac-x0344
     RDKit          3D

 28 30  0  0  0  0  0  0  0  0999 V2000
   -3.6080   15.6120   -3.5700 O   0  0  0  0  0  0  0  0  0  0  0  0
   -3.0090   15.2400   -2.5680 C   0  0  0  0  0  0  0  0  0  0  0  0
   -1.6580   14.9150   -2.5510 N   0  0  0  0  0  0  0  0  0  0  0  0
   -3.7230   15.1250   -1.2590 C   0  0  0  0  0  0  0  0  0  0  0  0
   -0.8880   14.7220   -3.7680 C   0  0  0  0  0  0  0  0  0  0  0  0
   -5.1090   15.1930   -1.2190 C   0  0  0  0  0  0  0  0  0  0  0  0
   -2.9640   14.9550   -0.1300 N   0  0  0  0  0  0  0  0  0  0  0  0
   -1.4660   13.5370   -4.4920 C   0  0  0  0  0  0  0  0  0  0  0  0
   -5.8020   15.0930   -0.0560 N   0  0  0  0  0  0  0  0  0  0  0  0
   -3.6710   14.8600    1.0230 C   0  0  0  0  0  0  0  0  0  0  0  0
   -2.8540   13.4730   -4.4270 C   0  0  0  0  0  0  0  0  0  0  0  0
   -0.7650   12.5180   -5.1880 C   0  0  0  0  0  0  0  0  0  0  0  0
   -5.0520   14.9260    1.0610 C   0  0  0  0  0  0  0  0  0  0  0  0
   -3.5600   12.4660   -5.0090 C   0  0  0  0  0  0  0  0  0  0  0  0
   -1.5340   11.5040   -5.7620 C   0  0  0  0  0  0  0  0  0  0  0  0
    0.7050   12.4800   -5.2860 C   0  0  0  0  0  0  0  0  0  0  0  0
   -2.8950   11.5020   -5.6660 C   0  0  0  0  0  0  0  0  0  0  0  0
   -1.2310   10.3320   -6.4830 C   0  0  0  0  0  0  0  0  0  0  0  0
    1.0920   12.0970   -3.9040 C   0  0  0  0  0  0  0  0  0  0  0  0
   -0.3280   10.1480   -7.5130 C   0  0  0  0  0  0  0  0  0  0  0  0
   -2.0310    9.2960   -6.0230 C   0  0  0  0  0  0  0  0  0  0  0  0
    2.0790   13.0560   -3.3030 C   0  0  0  0  0  0  0  0  0  0  0  0
    0.6570   11.1350   -3.2730 O   0  0  0  0  0  0  0  0  0  0  0  0
   -0.2560    8.8810   -8.0820 C   0  0  0  0  0  0  0  0  0  0  0  0
   -1.9640    8.0570   -6.5760 C   0  0  0  0  0  0  0  0  0  0  0  0
    2.7740   13.6960   -4.2330 O   0  0  0  0  0  0  0  0  0  0  0  0
    2.2120   13.2180   -2.1150 O   0  0  0  0  0  0  0  0  0  0  0  0
   -1.0750    7.8440   -7.6140 C   0  0  0  0  0  0  0  0  0  0  0  0
  1  2  2  0
  2  3  1  0
  2  4  1  0
  3  5  1  0
  4  6  2  0
  4  7  1  0
  5  8  1  0
  6  9  1  0
  7 10  2  0
  8 11  2  0
  8 12  1  0
  9 13  2  0
 10 13  1  0
 11 14  1  0
 12 15  2  0
 12 16  1  0
 14 17  2  0
 15 17  1  0
 15 18  1  0
 16 19  1  0
 18 20  2  0
 18 21  1  0
 19 22  1  0
 19 23  2  0
 20 24  1  0
 21 25  2  0
 22 26  1  0
 22 27  2  0
 24 28  2  0
 25 28  1  0
M  END
