mac-x0255-mac-x0284
     RDKit          3D

 22 24  0  0  0  0  0  0  0  0999 V2000
    0.8120   13.2820   -1.9420 N   0  0  0  0  0  0  0  0  0  0  0  0
    0.5640   12.3320   -2.9090 C   0  0  0  0  0  0  0  0  0  0  0  0
   -0.0210   11.2630   -2.7300 O   0  0  0  0  0  0  0  0  0  0  0  0
   -0.0410   14.1680   -1.4510 C   0  0  0  0  0  0  0  0  0  0  0  0
    1.1480   12.7460   -4.2560 C   0  0  0  0  0  0  0  0  0  0  0  0
   -1.5030   14.4720   -1.6980 C   0  0  0  0  0  0  0  0  0  0  0  0
    0.5810   14.0850   -4.5880 C   0  0  0  0  0  0  0  0  0  0  0  0
   -2.1510   14.8700   -0.5280 C   0  0  0  0  0  0  0  0  0  0  0  0
   -2.2740   14.4280   -2.8800 C   0  0  0  0  0  0  0  0  0  0  0  0
   -1.8140   14.0520   -4.0880 O   0  0  0  0  0  0  0  0  0  0  0  0
    1.1700   15.3360   -4.6010 C   0  0  0  0  0  0  0  0  0  0  0  0
   -1.0510   14.1670   -5.0230 S   0  0  0  0  0  0  0  0  0  0  0  0
   -3.5040   15.2280   -0.5140 C   0  0  0  0  0  0  0  0  0  0  0  0
   -3.6250   14.7850   -2.8760 C   0  0  0  0  0  0  0  0  0  0  0  0
   -4.1420   15.6560    0.7710 C   0  0  0  0  0  0  0  0  0  0  0  0
    0.2440   16.3770   -4.9700 C   0  0  0  0  0  0  0  0  0  0  0  0
   -1.0250   15.8630   -5.2160 C   0  0  0  0  0  0  0  0  0  0  0  0
   -4.2400   15.1880   -1.6970 C   0  0  0  0  0  0  0  0  0  0  0  0
    0.4200   17.7700   -5.1130 C   0  0  0  0  0  0  0  0  0  0  0  0
   -2.1180   16.6690   -5.5840 C   0  0  0  0  0  0  0  0  0  0  0  0
   -0.6650   18.5700   -5.4910 C   0  0  0  0  0  0  0  0  0  0  0  0
   -1.9110   18.0330   -5.7200 C   0  0  0  0  0  0  0  0  0  0  0  0
  1  2  1  0
  2  3  2  0
  1  4  2  3
  2  5  1  0
  4  6  1  0
  5  7  1  0
  6  8  2  0
  6  9  1  0
  9 10  1  0
  7 11  2  0
  7 12  1  0
  8 13  1  0
  9 14  2  0
 13 15  1  0
 11 16  1  0
 12 17  1  0
 16 17  2  0
 13 18  2  0
 14 18  1  0
 16 19  1  0
 17 20  1  0
 19 21  2  0
 20 22  2  0
 21 22  1  0
M  END
