mac-x0231-mac-x0361
     RDKit          3D

 25 27  0  0  0  0  0  0  0  0999 V2000
    1.0840   10.6870   -3.3360 O   0  0  0  0  0  0  0  0  0  0  0  0
    1.5870   11.9250   -3.2920 C   0  0  0  0  0  0  0  0  0  0  0  0
    1.6360   12.5140   -2.2230 O   0  0  0  0  0  0  0  0  0  0  0  0
    2.0150   12.4800   -4.6240 C   0  0  0  0  0  0  0  0  0  0  0  0
    1.3990   13.8410   -4.6400 C   0  0  0  0  0  0  0  0  0  0  0  0
   -0.0560   13.9040   -4.8000 C   0  0  0  0  0  0  0  0  0  0  0  0
    2.1550   14.8510   -4.3830 N   0  0  0  0  0  0  0  0  0  0  0  0
   -0.6690   15.0760   -4.4060 C   0  0  0  0  0  0  0  0  0  0  0  0
    1.5450   16.0450   -4.2760 N   0  0  0  0  0  0  0  0  0  0  0  0
   -0.8040   12.8210   -5.2900 C   0  0  0  0  0  0  0  0  0  0  0  0
    0.2090   16.2130   -3.9840 C   0  0  0  0  0  0  0  0  0  0  0  0
   -2.0590   15.0900   -4.4330 C   0  0  0  0  0  0  0  0  0  0  0  0
   -2.1870   12.8920   -5.3670 C   0  0  0  0  0  0  0  0  0  0  0  0
   -0.1880   17.2570   -3.4870 O   0  0  0  0  0  0  0  0  0  0  0  0
   -2.7500   16.1200   -3.9650 O   0  0  0  0  0  0  0  0  0  0  0  0
   -2.8150   14.0290   -4.9180 C   0  0  0  0  0  0  0  0  0  0  0  0
   -3.5060   15.7220   -2.8440 C   0  0  0  0  0  0  0  0  0  0  0  0
   -3.0810   15.8070   -1.5010 C   0  0  0  0  0  0  0  0  0  0  0  0
   -4.7750   15.2220   -3.1080 C   0  0  0  0  0  0  0  0  0  0  0  0
   -3.9480   15.4270   -0.4570 C   0  0  0  0  0  0  0  0  0  0  0  0
   -5.6320   14.8520   -2.0820 C   0  0  0  0  0  0  0  0  0  0  0  0
   -5.2390   14.9610   -0.7520 C   0  0  0  0  0  0  0  0  0  0  0  0
   -6.2430   14.5760    0.2810 C   0  0  0  0  0  0  0  0  0  0  0  0
   -5.8940   14.6780    1.5950 N   0  0  0  0  0  0  0  0  0  0  0  0
   -7.3730   14.2080   -0.0310 O   0  0  0  0  0  0  0  0  0  0  0  0
  1  2  1  0
  2  3  2  0
  2  4  1  0
  4  5  1  0
  5  6  1  0
  5  7  2  0
  6  8  2  0
  7  9  1  0
  6 10  1  0
  8 11  1  0
  9 11  1  0
  8 12  1  0
 10 13  2  0
 11 14  2  0
 12 15  1  0
 12 16  2  0
 13 16  1  0
 15 17  1  0
 17 18  2  0
 17 19  1  0
 18 20  1  0
 19 21  2  0
 20 22  2  0
 21 22  1  0
 22 23  1  0
 23 24  1  0
 23 25  2  0
M  END
