mac-x0436-mac-x0361
     RDKit          3D

 27 29  0  0  0  0  0  0  0  0999 V2000
    0.6900   11.1710   -2.9510 O   0  0  0  0  0  0  0  0  0  0  0  0
    1.2610   12.4030   -2.9400 C   0  0  0  0  0  0  0  0  0  0  0  0
    1.4590   12.9830   -1.8910 O   0  0  0  0  0  0  0  0  0  0  0  0
    1.5960   12.9350   -4.3200 C   0  0  0  0  0  0  0  0  0  0  0  0
    0.3900   13.3050   -5.1840 C   0  0  0  0  0  0  0  0  0  0  0  0
   -0.4100   12.0610   -5.5190 C   0  0  0  0  0  0  0  0  0  0  0  0
   -1.7490   11.7580   -4.7850 C   0  0  0  0  0  0  0  0  0  0  0  0
    0.0650   11.2690   -6.4420 N   0  0  0  0  0  0  0  0  0  0  0  0
   -2.1820   12.6280   -3.9140 N   0  0  0  0  0  0  0  0  0  0  0  0
   -2.3650   10.5700   -5.1350 N   0  0  0  0  0  0  0  0  0  0  0  0
   -0.6480   10.1110   -6.7920 C   0  0  0  0  0  0  0  0  0  0  0  0
   -1.4580   13.8690   -3.6030 C   0  0  0  0  0  0  0  0  0  0  0  0
   -1.8510    9.7530   -6.1530 C   0  0  0  0  0  0  0  0  0  0  0  0
   -0.1320    9.3010   -7.8080 C   0  0  0  0  0  0  0  0  0  0  0  0
   -2.2180   15.0740   -3.3630 O   0  0  0  0  0  0  0  0  0  0  0  0
   -0.8060    8.1410   -8.1950 C   0  0  0  0  0  0  0  0  0  0  0  0
   -2.5200    8.5860   -6.5470 C   0  0  0  0  0  0  0  0  0  0  0  0
   -1.9970    7.7840   -7.5640 C   0  0  0  0  0  0  0  0  0  0  0  0
   -3.2860   14.9970   -2.5040 C   0  0  0  0  0  0  0  0  0  0  0  0
   -2.9920   14.8430   -1.1440 C   0  0  0  0  0  0  0  0  0  0  0  0
   -4.6180   15.0620   -2.8930 C   0  0  0  0  0  0  0  0  0  0  0  0
   -4.0190   14.7530   -0.1940 C   0  0  0  0  0  0  0  0  0  0  0  0
   -5.6460   14.9770   -1.9590 C   0  0  0  0  0  0  0  0  0  0  0  0
   -5.3580   14.8180   -0.6030 C   0  0  0  0  0  0  0  0  0  0  0  0
   -6.4530   14.7120    0.4010 C   0  0  0  0  0  0  0  0  0  0  0  0
   -6.1650   14.9040    1.7260 N   0  0  0  0  0  0  0  0  0  0  0  0
   -7.6030   14.4690    0.0450 O   0  0  0  0  0  0  0  0  0  0  0  0
  1  2  1  0
  2  3  2  0
  2  4  1  0
  4  5  1  0
  5  6  1  0
  6  7  1  0
  6  8  2  0
  7  9  2  3
  7 10  1  0
  8 11  1  0
  9 12  1  0
 10 13  1  0
 11 13  2  0
 11 14  1  0
 12 15  1  0
 14 16  2  0
 13 17  1  0
 16 18  1  0
 17 18  2  0
 15 19  1  0
 19 20  2  0
 19 21  1  0
 20 22  1  0
 21 23  2  0
 22 24  2  0
 23 24  1  0
 24 25  1  0
 25 26  1  0
 25 27  2  0
M  END
