mac-x0387-diamond-x0689_0_A
     RDKit          3D

 12 13  0  0  0  0  0  0  0  0999 V2000
   -3.8340   15.2820    1.7260 N   0  0  0  0  0  0  0  0  0  0  0  0
   -4.9850   15.1270    0.8710 C   0  0  0  0  0  0  0  0  0  0  0  0
   -2.6030   14.9360    1.1270 C   0  0  0  0  0  0  0  0  0  0  0  0
   -2.4810   14.9000   -0.2900 C   0  0  0  0  0  0  0  0  0  0  0  0
   -1.5690   14.6500    1.9330 N   0  0  0  0  0  0  0  0  0  0  0  0
   -1.2150   14.5620   -0.8280 C   0  0  0  0  0  0  0  0  0  0  0  0
   -0.3860   14.3380    1.3900 C   0  0  0  0  0  0  0  0  0  0  0  0
   -3.5330   15.1820   -1.2040 C   0  0  0  0  0  0  0  0  0  0  0  0
   -0.1550   14.2820    0.0350 C   0  0  0  0  0  0  0  0  0  0  0  0
   -1.0360   14.5130   -2.2210 C   0  0  0  0  0  0  0  0  0  0  0  0
   -3.3380   15.1270   -2.5830 C   0  0  0  0  0  0  0  0  0  0  0  0
   -2.0920   14.7930   -3.0890 C   0  0  0  0  0  0  0  0  0  0  0  0
  1  2  1  0
  1  3  1  0
  3  4  2  0
  3  5  1  0
  4  6  1  0
  5  7  2  0
  4  8  1  0
  6  9  2  0
  7  9  1  0
  6 10  1  0
  8 11  2  0
 10 12  2  0
 11 12  1  0
M  END
