mac-x0302-diamond-x1018_0_A
     RDKit          3D

 17 18  0  0  0  0  0  0  0  0999 V2000
    1.1460   14.1820   -3.7610 O   0  0  0  0  0  0  0  0  0  0  0  0
    0.1680   14.1580   -2.8340 C   0  0  0  0  0  0  0  0  0  0  0  0
    0.4070   13.7160   -1.7200 O   0  0  0  0  0  0  0  0  0  0  0  0
   -1.1660   14.7110   -3.3340 C   0  0  0  0  0  0  0  0  0  0  0  0
   -2.0400   15.0720   -2.2120 N   0  0  0  0  0  0  0  0  0  0  0  0
   -3.4110   15.3490   -2.3680 C   0  0  0  0  0  0  0  0  0  0  0  0
   -3.8020   15.9960   -3.3170 O   0  0  0  0  0  0  0  0  0  0  0  0
   -4.2950   14.7070   -1.2700 C   0  0  2  0  0  0  0  0  0  0  0  0
   -4.7730   13.4230   -1.7720 C   0  0  0  0  0  0  0  0  0  0  0  0
   -5.3080   15.4450   -0.4140 C   0  0  0  0  0  0  0  0  0  0  0  0
   -3.3750   14.2510   -0.2150 C   0  0  0  0  0  0  0  0  0  0  0  0
   -6.4310   16.0300   -0.9370 O   0  0  0  0  0  0  0  0  0  0  0  0
   -4.9430   15.3720    0.8940 C   0  0  0  0  0  0  0  0  0  0  0  0
   -3.7230   14.6360    1.0050 C   0  0  0  0  0  0  0  0  0  0  0  0
   -2.3470   13.5280   -0.6510 N   0  0  0  0  0  0  0  0  0  0  0  0
   -3.9130   12.5330   -2.0360 N   0  0  0  0  0  0  0  0  0  0  0  0
   -2.5840   12.9510   -1.7530 N   0  0  0  0  0  0  0  0  0  0  0  0
  1  2  1  0
  2  3  2  0
  2  4  1  0
  4  5  1  0
  5  6  1  0
  6  7  2  0
  8  6  1  6
  8  9  1  0
  8 10  1  0
  8 11  1  0
 10 12  1  0
 10 13  2  0
 11 14  2  0
 13 14  1  0
 11 15  1  0
  9 16  2  0
 15 17  2  0
 16 17  1  0
M  END
