mac-x0326-diamond-x0962_0_A
     RDKit          3D

 22 24  0  0  0  0  0  0  0  0999 V2000
   -6.3640   15.2440   -2.5120 Cl  0  0  0  0  0  0  0  0  0  0  0  0
   -4.6520   15.0920   -2.4580 C   0  0  0  0  0  0  0  0  0  0  0  0
   -3.8200   15.0510   -3.5820 C   0  0  0  0  0  0  0  0  0  0  0  0
   -4.1050   15.0010   -1.2340 C   0  0  0  0  0  0  0  0  0  0  0  0
   -2.4140   14.9060   -3.3990 C   0  0  0  0  0  0  0  0  0  0  0  0
   -2.7450   14.8570   -1.0600 C   0  0  0  0  0  0  0  0  0  0  0  0
   -2.3600   14.7610    0.2910 C   0  0  1  0  0  0  0  0  0  0  0  0
   -1.4450   14.8350   -4.3800 N   0  0  0  0  0  0  0  0  0  0  0  0
   -1.9130   14.8140   -2.1240 C   0  0  0  0  0  0  0  0  0  0  0  0
   -1.3950   15.7840    0.5550 N   0  0  0  0  0  0  0  0  0  0  0  0
   -0.2520   14.6850   -3.8280 C   0  0  0  0  0  0  0  0  0  0  0  0
   -0.2000   14.6410   -2.1280 S   0  0  0  0  0  0  0  0  0  0  0  0
   -3.6650   14.8900    0.9150 C   0  0  0  0  0  0  0  0  0  0  0  0
    1.0140   14.5450   -4.6070 C   0  0  0  0  0  0  0  0  0  0  0  0
   -3.9180   15.4110    2.1140 N   0  0  0  0  0  0  0  0  0  0  0  0
   -4.9040   14.5150    0.4180 C   0  0  0  0  0  0  0  0  0  0  0  0
    1.4440   13.0810   -4.7070 C   0  0  0  0  0  0  0  0  0  0  0  0
   -5.2510   15.3380    2.3040 C   0  0  0  0  0  0  0  0  0  0  0  0
   -5.8870   14.8040    1.2980 N   0  0  0  0  0  0  0  0  0  0  0  0
    1.2140   12.3230   -3.4210 C   0  0  0  0  0  0  0  0  0  0  0  0
    0.3410   11.3080   -3.5440 O   0  0  0  0  0  0  0  0  0  0  0  0
    1.7460   12.5630   -2.3500 O   0  0  0  0  0  0  0  0  0  0  0  0
  1  2  1  0
  2  3  2  0
  2  4  1  0
  3  5  1  0
  4  6  2  0
  6  7  1  0
  5  8  1  0
  5  9  2  0
  6  9  1  0
  7 10  1  1
  8 11  2  0
  9 12  1  0
 11 12  1  0
  7 13  1  0
 11 14  1  0
 13 15  1  0
 13 16  2  0
 14 17  1  0
 15 18  1  0
 16 19  1  0
 18 19  2  0
 17 20  1  0
 20 21  1  0
 20 22  2  0
M  END
