mac-x0321-mac-x0263
     RDKit          3D

 19 20  0  0  0  0  0  0  0  0999 V2000
   -4.4240   15.4040    1.7610 Cl  0  0  0  0  0  0  0  0  0  0  0  0
   -4.6240   15.6820    0.0030 C   0  0  1  0  0  0  0  0  0  0  0  0
   -3.2200   15.4730   -0.6380 C   0  0  0  0  0  0  0  0  0  0  0  0
   -5.7520   14.8150   -0.6470 C   0  0  2  0  0  0  0  0  0  0  0  0
   -3.2390   14.5890   -1.9000 C   0  0  2  0  0  0  0  0  0  0  0  0
   -5.6320   14.9670   -2.1470 C   0  0  0  0  0  0  0  0  0  0  0  0
   -7.1790   15.0880   -0.2570 N   0  0  0  0  0  0  0  0  0  0  0  0
   -5.6130   13.3880   -0.1380 C   0  0  0  0  0  0  0  0  0  0  0  0
   -1.9510   14.7110   -2.7280 C   0  0  0  0  0  0  0  0  0  0  0  0
   -4.4490   14.8640   -2.7330 C   0  0  0  0  0  0  0  0  0  0  0  0
   -7.5950   14.0660    0.7140 C   0  0  1  0  0  0  0  0  0  0  0  0
   -6.3330   13.5060    1.1240 N   0  0  0  0  0  0  0  0  0  0  0  0
   -0.8220   14.7080   -1.9760 O   0  0  0  0  0  0  0  0  0  0  0  0
   -1.9040   14.7920   -3.9450 O   0  0  0  0  0  0  0  0  0  0  0  0
   -8.3870   14.6280    1.9170 C   0  0  0  0  0  0  0  0  0  0  0  0
   -9.5990   15.4910    1.5720 C   0  0  0  0  0  0  0  0  0  0  0  0
  -10.7120   15.4190    2.5930 C   0  0  0  0  0  0  0  0  0  0  0  0
  -11.4620   14.3030    2.5170 O   0  0  0  0  0  0  0  0  0  0  0  0
  -10.9290   16.2930    3.4240 O   0  0  0  0  0  0  0  0  0  0  0  0
  2  1  1  1
  2  3  1  0
  2  4  1  0
  3  5  1  0
  4  6  1  6
  4  7  1  0
  4  8  1  0
  5  9  1  6
  5 10  1  0
  6 10  2  0
  7 11  1  0
  8 12  1  0
 11 12  1  0
  9 13  1  0
  9 14  2  0
 11 15  1  1
 15 16  1  0
 16 17  1  0
 17 18  1  0
 17 19  2  0
M  END
