mac-x0305-diamond-x0282_0_A
     RDKit          3D

 23 25  0  0  0  0  0  0  0  0999 V2000
   -0.2720   13.2490   -1.5540 O   0  0  0  0  0  0  0  0  0  0  0  0
   -0.5400   14.4410   -2.1450 C   0  0  0  0  0  0  0  0  0  0  0  0
    0.2760   14.9070   -2.9130 O   0  0  0  0  0  0  0  0  0  0  0  0
   -1.8780   15.0080   -1.7430 C   0  0  0  0  0  0  0  0  0  0  0  0
   -2.2710   15.4090   -0.4510 C   0  0  0  0  0  0  0  0  0  0  0  0
   -2.7160   15.0700   -2.8130 N   0  0  0  0  0  0  0  0  0  0  0  0
   -3.5710   15.8750   -0.3150 C   0  0  0  0  0  0  0  0  0  0  0  0
   -3.9550   15.5190   -2.6010 C   0  0  0  0  0  0  0  0  0  0  0  0
   -1.6140   15.3640    0.6980 N   0  0  0  0  0  0  0  0  0  0  0  0
   -4.4280   15.9310   -1.3820 C   0  0  0  0  0  0  0  0  0  0  0  0
   -0.1740   15.5590    0.8050 C   0  0  0  0  0  0  0  0  0  0  0  0
   -1.9920   14.0400    0.8820 C   0  0  2  0  0  0  0  0  0  0  0  0
   -3.3590   13.7080    1.3270 N   0  0  0  0  0  0  0  0  0  0  0  0
   -0.7840   13.2570    0.7760 N   0  0  0  0  0  0  0  0  0  0  0  0
    0.4930   14.8050   -0.2460 C   0  0  0  0  0  0  0  0  0  0  0  0
   -3.9120   14.7350    2.2280 C   0  0  0  0  0  0  0  0  0  0  0  0
   -4.2050   13.5460    0.1080 C   0  0  0  0  0  0  0  0  0  0  0  0
    0.1260   13.5720   -0.2120 C   0  0  0  0  0  0  0  0  0  0  0  0
   -5.4050   14.5260    2.5560 C   0  0  0  0  0  0  0  0  0  0  0  0
   -5.5250   14.3400    0.1150 C   0  0  0  0  0  0  0  0  0  0  0  0
   -6.2360   13.9700    1.3890 C   0  0  0  0  0  0  0  0  0  0  0  0
   -7.7160   14.3590    1.4250 C   0  0  0  0  0  0  0  0  0  0  0  0
   -8.2710   14.5050    0.1230 O   0  0  0  0  0  0  0  0  0  0  0  0
  1  2  1  0
  2  3  2  0
  2  4  1  0
  4  5  2  0
  4  6  1  0
  5  7  1  0
  6  8  2  0
  5  9  1  0
  7 10  2  0
  8 10  1  0
  9 11  1  0
  9 12  1  0
 12 13  1  1
 12 14  1  0
 11 15  1  0
 13 16  1  0
 13 17  1  0
 14 18  1  0
 15 18  2  0
 16 19  1  0
 17 20  1  0
 19 21  1  0
 20 21  1  0
 21 22  1  0
 22 23  1  0
M  END
