mac-x0576-mac-x0319
     RDKit          3D

 24 26  0  0  0  0  0  0  0  0999 V2000
   -0.0870   13.8760    1.3150 N   0  0  0  0  0  0  0  0  0  0  0  0
   -0.9400   14.7920    0.6170 C   0  0  2  0  0  0  0  0  0  0  0  0
   -2.1320   14.6430    1.4320 N   0  0  0  0  0  0  0  0  0  0  0  0
   -1.0380   14.6620   -0.8140 N   0  0  0  0  0  0  0  0  0  0  0  0
   -2.2320   14.8290   -1.5000 C   0  0  0  0  0  0  0  0  0  0  0  0
   -3.2470   15.2710    0.7500 C   0  0  1  0  0  0  0  0  0  0  0  0
   -2.2500   15.0180   -2.8080 N   0  0  0  0  0  0  0  0  0  0  0  0
   -3.4880   14.7840   -0.6840 C   0  0  1  0  0  0  0  0  0  0  0  0
   -4.4450   15.0090    1.4860 N   0  0  0  0  0  0  0  0  0  0  0  0
   -5.6730   14.9610    0.8470 C   0  0  0  0  0  0  0  0  0  0  0  0
   -4.4920   15.6580   -1.2630 N   0  0  0  0  0  0  0  0  0  0  0  0
   -1.0710   14.9940   -3.4840 C   0  0  0  0  0  0  0  0  0  0  0  0
   -6.6820   14.6910    1.4870 O   0  0  0  0  0  0  0  0  0  0  0  0
   -5.7660   15.2650   -0.6640 C   0  0  0  0  0  0  0  0  0  0  0  0
   -0.4930   16.0600   -4.1730 C   0  0  0  0  0  0  0  0  0  0  0  0
   -0.4510   13.7870   -3.4210 C   0  0  0  0  0  0  0  0  0  0  0  0
    0.7520   13.5780   -4.0060 C   0  0  0  0  0  0  0  0  0  0  0  0
    0.7350   15.8620   -4.7710 C   0  0  0  0  0  0  0  0  0  0  0  0
    1.3170   12.2150   -3.8440 C   0  0  0  0  0  0  0  0  0  0  0  0
    1.2810   16.9210   -5.4250 O   0  0  0  0  0  0  0  0  0  0  0  0
    1.3620   14.6120   -4.6810 C   0  0  0  0  0  0  0  0  0  0  0  0
    0.8320   11.6500   -2.5250 C   0  0  0  0  0  0  0  0  0  0  0  0
    0.5070   10.3340   -2.5590 O   0  0  0  0  0  0  0  0  0  0  0  0
    0.7110   12.2570   -1.4740 O   0  0  0  0  0  0  0  0  0  0  0  0
  2  1  1  1
  2  3  1  0
  2  4  1  0
  4  5  1  0
  6  3  1  1
  5  7  2  3
  5  8  1  0
  6  8  1  0
  6  9  1  0
  9 10  1  0
  8 11  1  6
  7 12  1  0
 10 13  2  0
 10 14  1  0
 11 14  1  0
 12 15  2  0
 12 16  1  0
 16 17  2  0
 15 18  1  0
 17 19  1  0
 18 20  1  0
 17 21  1  0
 18 21  2  0
 19 22  1  0
 22 23  1  0
 22 24  2  0
M  END
