mac-x0380-mac-x0180
     RDKit          3D

 20 21  0  0  0  0  0  0  0  0999 V2000
   -1.1120   14.7400   -2.8890 C   0  0  0  0  0  0  0  0  0  0  0  0
   -2.6160   15.0210   -2.9340 C   0  0  0  0  0  0  0  0  0  0  0  0
   -3.0120   15.4650   -4.0110 O   0  0  0  0  0  0  0  0  0  0  0  0
   -0.4950   14.3190   -3.8400 O   0  0  0  0  0  0  0  0  0  0  0  0
   -0.5710   15.0250   -1.6900 O   0  0  0  0  0  0  0  0  0  0  0  0
   -3.5810   14.7890   -1.8290 C   0  0  0  0  0  0  0  0  0  0  0  0
   -4.8240   15.4300   -1.9630 C   0  0  0  0  0  0  0  0  0  0  0  0
   -3.3540   13.9790   -0.7110 C   0  0  0  0  0  0  0  0  0  0  0  0
   -5.8370   15.3040   -1.0110 C   0  0  0  0  0  0  0  0  0  0  0  0
   -4.3980   13.8620    0.2160 C   0  0  0  0  0  0  0  0  0  0  0  0
   -4.5290   13.1010    1.3520 N   0  0  0  0  0  0  0  0  0  0  0  0
   -5.5880   14.5230    0.0860 C   0  0  0  0  0  0  0  0  0  0  0  0
   -7.4070   16.1130   -1.2330 S   0  0  0  0  0  0  0  0  0  0  0  0
   -5.7810   12.4720    1.2620 C   0  0  0  0  0  0  0  0  0  0  0  0
   -6.5050   14.3260    1.1380 N   0  0  0  0  0  0  0  0  0  0  0  0
   -8.4420   15.0890   -0.1400 C   0  0  0  0  0  0  0  0  0  0  0  0
   -6.4830   12.1240    2.5430 C   0  0  0  0  0  0  0  0  0  0  0  0
   -6.3490   12.2360    0.1940 O   0  0  0  0  0  0  0  0  0  0  0  0
   -7.7890   14.7570    1.1780 C   0  0  0  0  0  0  0  0  0  0  0  0
   -8.3680   14.8720    2.2670 O   0  0  0  0  0  0  0  0  0  0  0  0
  1  2  1  0
  2  3  2  0
  1  4  2  0
  1  5  1  0
  2  6  1  0
  6  7  2  0
  6  8  1  0
  7  9  1  0
  8 10  2  0
 10 11  1  0
  9 12  2  0
 10 12  1  0
  9 13  1  0
 11 14  1  0
 12 15  1  0
 13 16  1  0
 14 17  1  0
 14 18  2  0
 15 19  1  0
 16 19  1  0
 19 20  2  0
M  END
