mac-x0228-mac-x0567
     RDKit          3D

 17 19  0  0  0  0  0  0  0  0999 V2000
   -0.8220   14.7840   -1.8030 O   0  0  0  0  0  0  0  0  0  0  0  0
   -1.9050   14.8820   -2.5980 C   0  0  0  0  0  0  0  0  0  0  0  0
   -1.7760   15.1750   -3.7850 O   0  0  0  0  0  0  0  0  0  0  0  0
   -3.2720   14.5890   -1.9630 C   0  0  1  0  0  0  0  0  0  0  0  0
   -3.4820   14.6360   -0.3780 C   0  0  2  0  0  0  0  0  0  0  0  0
   -4.4510   15.0740   -2.8090 C   0  0  0  0  0  0  0  0  0  0  0  0
   -4.9940   14.3200   -0.1630 C   0  0  2  0  0  0  0  0  0  0  0  0
   -5.6370   15.4080   -2.2870 C   0  0  0  0  0  0  0  0  0  0  0  0
   -3.0490   15.7310    0.5300 N   0  0  0  0  0  0  0  0  0  0  0  0
   -2.6120   13.5190    0.2120 C   0  0  0  0  0  0  0  0  0  0  0  0
   -5.8600   15.3510   -0.8350 C   0  0  1  0  0  0  0  0  0  0  0  0
   -5.6670   14.2480    1.1820 C   0  0  0  0  0  0  0  0  0  0  0  0
   -1.3600   14.1260    0.8710 C   0  0  2  0  0  0  0  0  0  0  0  0
   -1.7530   15.4750    1.1430 N   0  0  0  0  0  0  0  0  0  0  0  0
   -0.1590   14.1660    0.0570 N   0  0  0  0  0  0  0  0  0  0  0  0
   -7.2000   14.9930   -0.4990 O   0  0  0  0  0  0  0  0  0  0  0  0
   -7.1410   14.3950    0.8120 C   0  0  0  0  0  0  0  0  0  0  0  0
  1  2  1  0
  2  3  2  0
  4  2  1  1
  4  5  1  0
  4  6  1  0
  5  7  1  0
  6  8  2  0
  5  9  1  0
  5 10  1  1
  7 11  1  0
 11  8  1  6
  7 12  1  1
 10 13  1  0
  9 14  1  0
 13 14  1  0
 13 15  1  6
 11 16  1  0
 12 17  1  0
 16 17  1  0
M  END
