mac-x0584-mac-x1493
     RDKit          3D

 26 30  0  0  0  0  0  0  0  0999 V2000
   -2.3410   13.6350   -2.1700 O   0  0  0  0  0  0  0  0  0  0  0  0
   -3.3810   14.4640   -2.4160 C   0  0  0  0  0  0  0  0  0  0  0  0
   -3.9250   14.4170   -3.4990 O   0  0  0  0  0  0  0  0  0  0  0  0
   -3.6210   15.3580   -1.2330 C   0  0  2  0  0  0  0  0  0  0  0  0
   -2.3270   15.2750   -0.6020 C   0  0  0  0  0  0  0  0  0  0  0  0
   -4.5410   14.9300   -0.0220 C   0  0  2  0  0  0  0  0  0  0  0  0
   -2.4770   15.3240    0.7560 C   0  0  0  0  0  0  0  0  0  0  0  0
   -1.1130   15.1460   -1.1940 C   0  0  0  0  0  0  0  0  0  0  0  0
   -3.8460   15.5120    1.1290 N   0  0  0  0  0  0  0  0  0  0  0  0
   -4.5900   13.4450    0.4270 C   0  0  0  0  0  0  0  0  0  0  0  0
   -5.9770   15.3560   -0.2570 C   0  0  0  0  0  0  0  0  0  0  0  0
   -0.9720   15.1270   -2.5770 N   0  0  0  0  0  0  0  0  0  0  0  0
   -0.0470   15.0310   -0.4010 N   0  0  0  0  0  0  0  0  0  0  0  0
   -1.4490   15.2090    1.5720 N   0  0  0  0  0  0  0  0  0  0  0  0
   -7.0090   14.8690    0.4510 C   0  0  0  0  0  0  0  0  0  0  0  0
   -5.6330   13.2370    1.5070 C   0  0  0  0  0  0  0  0  0  0  0  0
    0.1830   14.6900   -3.3530 C   0  0  1  0  0  0  0  0  0  0  0  0
   -1.8400   15.9670   -3.4080 C   0  0  0  0  0  0  0  0  0  0  0  0
   -0.2690   15.0640    0.9320 C   0  0  0  0  0  0  0  0  0  0  0  0
   -6.7800   13.9290    1.4960 C   0  0  0  0  0  0  0  0  0  0  0  0
    0.4560   13.2080   -3.1100 C   0  0  0  0  0  0  0  0  0  0  0  0
   -0.2510   14.9250   -4.8330 C   0  0  0  0  0  0  0  0  0  0  0  0
   -1.7200   15.3310   -4.7800 C   0  0  0  0  0  0  0  0  0  0  0  0
    1.3540   12.4220   -4.0970 C   0  0  0  0  0  0  0  0  0  0  0  0
   -0.7020   12.2780   -3.5760 C   0  0  0  0  0  0  0  0  0  0  0  0
    0.3610   11.2490   -3.9260 C   0  0  0  0  0  0  0  0  0  0  0  0
  1  2  1  0
  2  3  2  0
  4  2  1  6
  4  5  1  0
  4  6  1  0
  5  7  2  0
  5  8  1  0
  6  9  1  0
  7  9  1  0
  6 10  1  1
  6 11  1  0
  8 12  1  0
  8 13  2  0
  7 14  1  0
 11 15  2  0
 10 16  1  0
 12 17  1  0
 12 18  1  0
 13 19  1  0
 14 19  2  0
 15 20  1  0
 16 20  2  0
 17 21  1  6
 17 22  1  0
 18 23  1  0
 22 23  1  0
 21 24  1  0
 21 25  1  0
 24 26  1  0
 25 26  1  0
M  END
