mac-x0271-mac-x0565
     RDKit          3D

 24 27  0  0  0  0  0  0  0  0999 V2000
   -3.5070   15.7880   -1.5270 O   0  0  0  0  0  0  0  0  0  0  0  0
   -4.3520   15.4830   -0.5040 C   0  0  0  0  0  0  0  0  0  0  0  0
   -3.8470   15.6730    0.7570 C   0  0  0  0  0  0  0  0  0  0  0  0
   -5.6470   15.0160   -0.6980 C   0  0  0  0  0  0  0  0  0  0  0  0
   -6.1860   14.8110   -2.0280 C   0  0  0  0  0  0  0  0  0  0  0  0
   -6.4260   14.7570    0.3910 C   0  0  0  0  0  0  0  0  0  0  0  0
   -4.6490   15.4020    1.8450 C   0  0  0  0  0  0  0  0  0  0  0  0
   -6.9700   15.9700   -2.2720 O   0  0  0  0  0  0  0  0  0  0  0  0
   -7.0740   13.7140   -2.0970 O   0  0  0  0  0  0  0  0  0  0  0  0
   -5.9570   14.9390    1.6690 C   0  0  0  0  0  0  0  0  0  0  0  0
   -7.7500   14.3050    0.1840 O   0  0  0  0  0  0  0  0  0  0  0  0
   -4.9380   14.7380   -2.8700 C   0  0  0  0  0  0  0  0  0  0  0  0
   -6.8570   14.6600    2.7680 C   0  0  0  0  0  0  0  0  0  0  0  0
   -8.6930   14.5500    1.1610 C   0  0  0  0  0  0  0  0  0  0  0  0
   -3.6840   14.6380   -2.2190 C   0  0  0  0  0  0  0  0  0  0  0  0
   -4.9830   14.7760   -4.2670 C   0  0  0  0  0  0  0  0  0  0  0  0
   -9.8690   14.8110    0.9300 O   0  0  0  0  0  0  0  0  0  0  0  0
   -8.1600   14.4790    2.5230 C   0  0  0  0  0  0  0  0  0  0  0  0
   -2.5470   14.6040   -2.9780 C   0  0  0  0  0  0  0  0  0  0  0  0
   -3.8120   14.7400   -5.0200 C   0  0  0  0  0  0  0  0  0  0  0  0
   -2.6110   14.6590   -4.3440 C   0  0  0  0  0  0  0  0  0  0  0  0
   -1.2650   14.5230   -2.5180 O   0  0  0  0  0  0  0  0  0  0  0  0
   -1.3770   14.6270   -4.9060 O   0  0  0  0  0  0  0  0  0  0  0  0
   -0.5670   14.8580   -3.7320 C   0  0  0  0  0  0  0  0  0  0  0  0
  1  2  1  0
  2  3  2  0
  2  4  1  0
  4  5  1  0
  4  6  2  0
  3  7  1  0
  5  8  1  0
  5  9  1  0
  6 10  1  0
  7 10  2  0
  6 11  1  0
  5 12  1  0
 10 13  1  0
 11 14  1  0
 12 15  2  0
 12 16  1  0
 14 17  2  0
 13 18  2  0
 14 18  1  0
 15 19  1  0
 16 20  2  0
 19 21  2  0
 20 21  1  0
 19 22  1  0
 21 23  1  0
 22 24  1  0
 23 24  1  0
M  END
