mac-x0328-diamond-x0689_0_A
     RDKit          3D

 17 18  0  0  0  0  0  0  0  0999 V2000
   -2.0720   13.9540   -4.0840 O   0  0  0  0  0  0  0  0  0  0  0  0
   -2.2130   15.1000   -3.2690 C   0  0  0  0  0  0  0  0  0  0  0  0
   -3.5230   15.1160   -2.5190 C   0  0  0  0  0  0  0  0  0  0  0  0
   -3.5460   15.2330   -1.1360 C   0  0  0  0  0  0  0  0  0  0  0  0
   -4.7370   15.0190   -3.1850 C   0  0  0  0  0  0  0  0  0  0  0  0
   -4.7370   15.2550   -0.4100 C   0  0  0  0  0  0  0  0  0  0  0  0
   -5.9450   15.0450   -2.4810 C   0  0  0  0  0  0  0  0  0  0  0  0
   -5.9450   15.1630   -1.1010 C   0  0  0  0  0  0  0  0  0  0  0  0
   -4.6160   15.3700    1.0720 C   0  0  0  0  0  0  0  0  0  0  0  0
   -7.1330   15.1870   -0.4250 O   0  0  0  0  0  0  0  0  0  0  0  0
   -3.6910   14.3570    1.4850 N   0  0  0  0  0  0  0  0  0  0  0  0
   -2.3900   14.3970    1.0460 C   0  0  0  0  0  0  0  0  0  0  0  0
   -2.2190   14.3570   -0.2810 N   0  0  0  0  0  0  0  0  0  0  0  0
   -1.3920   14.4690    1.9070 N   0  0  0  0  0  0  0  0  0  0  0  0
   -0.9640   14.4000   -0.7470 C   0  0  0  0  0  0  0  0  0  0  0  0
   -0.1650   14.5130    1.3980 C   0  0  0  0  0  0  0  0  0  0  0  0
    0.1240   14.4820    0.0600 C   0  0  0  0  0  0  0  0  0  0  0  0
  1  2  1  0
  2  3  1  0
  3  4  2  0
  3  5  1  0
  4  6  1  0
  5  7  2  0
  6  8  2  0
  7  8  1  0
  6  9  1  0
  8 10  1  0
  9 11  1  0
 11 12  1  0
 12 13  2  0
 12 14  1  0
 13 15  1  0
 14 16  2  0
 15 17  2  0
 16 17  1  0
M  END
