mac-x0131-mac-x0509
     RDKit          3D

 30 34  0  0  0  0  0  0  0  0999 V2000
   -3.5790   15.1120   -4.1680 C   0  0  0  0  0  0  0  0  0  0  0  0
   -3.0660   15.0330   -2.7690 C   0  0  0  0  0  0  0  0  0  0  0  0
   -3.7480   15.1750   -1.5580 C   0  0  0  0  0  0  0  0  0  0  0  0
   -1.7380   14.7920   -2.4760 N   0  0  0  0  0  0  0  0  0  0  0  0
   -5.2010   15.4520   -1.3820 C   0  0  0  0  0  0  0  0  0  0  0  0
   -0.6550   14.5850   -3.4350 C   0  0  0  0  0  0  0  0  0  0  0  0
   -2.7840   15.0080   -0.5060 C   0  0  0  0  0  0  0  0  0  0  0  0
   -1.5550   14.7690   -1.1130 C   0  0  0  0  0  0  0  0  0  0  0  0
   -2.7860   15.0330    0.9060 C   0  0  0  0  0  0  0  0  0  0  0  0
   -0.3830   14.5610   -0.4880 N   0  0  0  0  0  0  0  0  0  0  0  0
   -0.5310   13.1410   -3.7070 C   0  0  0  0  0  0  0  0  0  0  0  0
   -3.9200   15.2790    1.6680 N   0  0  0  0  0  0  0  0  0  0  0  0
   -1.6300   14.8170    1.5700 N   0  0  0  0  0  0  0  0  0  0  0  0
   -0.5160   14.6010    0.8500 C   0  0  0  0  0  0  0  0  0  0  0  0
    0.5020   12.3010   -4.0640 C   0  0  0  0  0  0  0  0  0  0  0  0
   -1.6870   12.4280   -3.5870 O   0  0  0  0  0  0  0  0  0  0  0  0
   -1.4050   11.1300   -3.8610 C   0  0  0  0  0  0  0  0  0  0  0  0
   -0.0770   11.0070   -4.1600 C   0  0  0  0  0  0  0  0  0  0  0  0
   -2.5460   10.1740   -3.7780 C   0  0  0  0  0  0  0  0  0  0  0  0
   -2.3550    8.9400   -4.6740 C   0  0  0  0  0  0  0  0  0  0  0  0
   -2.5530    9.3190   -6.0260 N   0  0  0  0  0  0  0  0  0  0  0  0
   -1.7800    8.8740   -6.9250 C   0  0  0  0  0  0  0  0  0  0  0  0
   -2.0630    9.4180   -8.3150 C   0  0  0  0  0  0  0  0  0  0  0  0
   -0.6890    8.0120   -6.9900 N   0  0  0  0  0  0  0  0  0  0  0  0
   -0.7090    9.2720   -8.9130 C   0  0  0  0  0  0  0  0  0  0  0  0
    0.0550    8.4180   -8.1070 C   0  0  0  0  0  0  0  0  0  0  0  0
   -0.2150    9.8420  -10.0660 C   0  0  0  0  0  0  0  0  0  0  0  0
    1.3390    8.0980   -8.4640 C   0  0  0  0  0  0  0  0  0  0  0  0
    1.0890    9.5290  -10.4280 C   0  0  0  0  0  0  0  0  0  0  0  0
    1.8580    8.6600   -9.6380 C   0  0  0  0  0  0  0  0  0  0  0  0
  1  2  1  0
  2  3  2  0
  2  4  1  0
  3  5  1  0
  4  6  1  0
  3  7  1  0
  4  8  1  0
  7  8  2  0
  7  9  1  0
  8 10  1  0
  6 11  1  0
  9 12  1  0
  9 13  2  0
 10 14  2  0
 13 14  1  0
 11 15  2  0
 11 16  1  0
 16 17  1  0
 15 18  1  0
 17 18  2  0
 17 19  1  0
 19 20  1  0
 20 21  1  0
 21 22  2  3
 22 23  1  0
 22 24  1  0
 23 25  1  0
 24 26  1  0
 25 26  2  0
 25 27  1  0
 26 28  1  0
 27 29  2  0
 28 30  2  0
 29 30  1  0
M  END
