mac-x0305-mac-x0179
     RDKit          3D

 24 26  0  0  0  0  0  0  0  0999 V2000
   -0.1660   12.6060   -1.4690 O   0  0  0  0  0  0  0  0  0  0  0  0
   -0.2700   13.9740   -1.5620 C   0  0  0  0  0  0  0  0  0  0  0  0
    0.5500   14.7110   -2.0710 O   0  0  0  0  0  0  0  0  0  0  0  0
    0.3060   11.8120   -2.5300 C   0  0  0  0  0  0  0  0  0  0  0  0
    0.5370   10.6000   -2.4500 O   0  0  0  0  0  0  0  0  0  0  0  0
    0.5070   12.6090   -3.8590 C   0  0  0  0  0  0  0  0  0  0  0  0
   -1.5920   14.4840   -0.9710 C   0  0  0  0  0  0  0  0  0  0  0  0
   -1.8790   14.7170    0.4130 C   0  0  0  0  0  0  0  0  0  0  0  0
   -2.5440   14.7300   -1.9370 N   0  0  0  0  0  0  0  0  0  0  0  0
    0.0090   11.8480   -5.0230 N   0  0  0  0  0  0  0  0  0  0  0  0
   -1.0130   14.5170    1.4640 O   0  0  0  0  0  0  0  0  0  0  0  0
   -3.1520   15.2000    0.7460 C   0  0  0  0  0  0  0  0  0  0  0  0
   -3.7530   15.1980   -1.5600 C   0  0  0  0  0  0  0  0  0  0  0  0
    0.7070   11.5770   -6.1860 C   0  0  0  0  0  0  0  0  0  0  0  0
   -1.1780   11.1770   -5.0050 C   0  0  0  0  0  0  0  0  0  0  0  0
    1.7310   12.0700   -6.6030 O   0  0  0  0  0  0  0  0  0  0  0  0
   -2.0880   11.2840   -4.2160 O   0  0  0  0  0  0  0  0  0  0  0  0
   -4.0980   15.4450   -0.2480 C   0  0  0  0  0  0  0  0  0  0  0  0
   -0.0340   10.5000   -6.8740 C   0  0  0  0  0  0  0  0  0  0  0  0
   -1.1800   10.2600   -6.1440 C   0  0  0  0  0  0  0  0  0  0  0  0
    0.2550    9.7850   -8.0270 C   0  0  0  0  0  0  0  0  0  0  0  0
   -2.1060    9.3000   -6.5100 C   0  0  0  0  0  0  0  0  0  0  0  0
   -0.6710    8.8040   -8.4210 C   0  0  0  0  0  0  0  0  0  0  0  0
   -1.8390    8.5640   -7.6690 C   0  0  0  0  0  0  0  0  0  0  0  0
  1  2  1  0
  2  3  2  0
  1  4  1  0
  4  5  2  0
  4  6  1  0
  2  7  1  0
  7  8  2  0
  7  9  1  0
  6 10  1  0
  8 11  1  0
  8 12  1  0
  9 13  2  0
 10 14  1  0
 10 15  1  0
 14 16  2  0
 15 17  2  0
 12 18  2  0
 13 18  1  0
 14 19  1  0
 15 20  1  0
 19 20  2  0
 19 21  1  0
 20 22  1  0
 21 23  2  0
 22 24  2  0
 23 24  1  0
M  END
