mac-x0193-mac-x0142
     RDKit          3D

 31 35  0  0  0  0  0  0  0  0999 V2000
    0.5950   10.0370   -2.6460 O   0  0  0  0  0  0  0  0  0  0  0  0
    0.8190   11.3220   -2.9880 C   0  0  0  0  0  0  0  0  0  0  0  0
    1.3180   12.1070   -2.1960 O   0  0  0  0  0  0  0  0  0  0  0  0
    0.3830   11.6720   -4.3960 C   0  0  2  0  0  0  0  0  0  0  0  0
    0.5860   10.5820   -5.3450 N   0  0  0  0  0  0  0  0  0  0  0  0
    1.1720   12.8080   -4.8930 C   0  0  2  0  0  0  0  0  0  0  0  0
    1.0190   10.8720   -6.6190 C   0  0  0  0  0  0  0  0  0  0  0  0
    2.3820   13.3650   -4.2880 C   0  0  0  0  0  0  0  0  0  0  0  0
    1.0800   14.1910   -4.2660 C   0  0  1  0  0  0  0  0  0  0  0  0
    1.9530   11.6200   -6.8330 O   0  0  0  0  0  0  0  0  0  0  0  0
    0.2970   10.2340   -7.5980 N   0  0  0  0  0  0  0  0  0  0  0  0
    0.2090   14.7640   -5.3230 C   0  0  0  0  0  0  0  0  0  0  0  0
    0.6890   14.6420   -2.8790 C   0  0  0  0  0  0  0  0  0  0  0  0
    0.9070    9.8520   -8.8730 C   0  0  0  0  0  0  0  0  0  0  0  0
   -1.2100   14.2360   -5.0840 C   0  0  0  0  0  0  0  0  0  0  0  0
   -0.7440   14.5160   -2.5800 N   0  0  0  0  0  0  0  0  0  0  0  0
    1.5490    8.4650   -8.7860 C   0  0  0  0  0  0  0  0  0  0  0  0
   -0.0760    9.9120  -10.0440 C   0  0  0  0  0  0  0  0  0  0  0  0
   -1.7030   14.6610   -3.7010 C   0  0  0  0  0  0  0  0  0  0  0  0
   -1.1350   14.6270   -1.2320 C   0  0  0  0  0  0  0  0  0  0  0  0
    2.2260    8.0410  -10.0890 C   0  0  0  0  0  0  0  0  0  0  0  0
    0.5980    9.5140  -11.3590 C   0  0  0  0  0  0  0  0  0  0  0  0
   -0.1950   14.4720   -0.2210 N   0  0  0  0  0  0  0  0  0  0  0  0
   -2.3690   14.9010   -0.7710 C   0  0  0  0  0  0  0  0  0  0  0  0
    1.2710    8.1430  -11.2730 C   0  0  0  0  0  0  0  0  0  0  0  0
   -0.4910   14.5000    1.1110 C   0  0  0  0  0  0  0  0  0  0  0  0
   -2.6100   14.9840    0.6990 C   0  0  0  0  0  0  0  0  0  0  0  0
   -3.6710   15.1860   -1.3050 C   0  0  0  0  0  0  0  0  0  0  0  0
   -1.6420   14.7280    1.6230 N   0  0  0  0  0  0  0  0  0  0  0  0
   -3.8330   15.3250    0.9830 N   0  0  0  0  0  0  0  0  0  0  0  0
   -4.4550   15.4370   -0.2480 C   0  0  0  0  0  0  0  0  0  0  0  0
  1  2  1  0
  2  3  2  0
  2  4  1  0
  4  5  1  6
  4  6  1  0
  5  7  1  0
  6  8  1  1
  6  9  1  0
  9  8  1  6
  7 10  2  0
  7 11  1  0
  9 12  1  0
  9 13  1  0
 11 14  1  0
 12 15  1  0
 13 16  1  0
 14 17  1  0
 14 18  1  0
 15 19  1  0
 16 19  1  0
 16 20  1  0
 17 21  1  0
 18 22  1  0
 20 23  1  0
 20 24  2  0
 21 25  1  0
 22 25  1  0
 23 26  1  0
 24 27  1  0
 24 28  1  0
 26 29  2  0
 27 29  1  0
 27 30  2  0
 28 31  2  0
 30 31  1  0
M  END
