mac-x0180-mac-x0226
     RDKit          3D

 28 30  0  0  0  0  0  0  0  0999 V2000
   -7.7600   14.4930    1.4990 C   0  0  0  0  0  0  0  0  0  0  0  0
   -6.7730   14.7070    0.3790 C   0  0  0  0  0  0  0  0  0  0  0  0
   -7.1590   14.7870   -0.7800 O   0  0  0  0  0  0  0  0  0  0  0  0
   -5.4650   14.7950    0.8320 N   0  0  0  0  0  0  0  0  0  0  0  0
   -4.3220   14.8300    0.0060 C   0  0  0  0  0  0  0  0  0  0  0  0
   -3.0210   14.7420    0.4900 C   0  0  0  0  0  0  0  0  0  0  0  0
   -4.5230   14.9530   -1.3770 C   0  0  0  0  0  0  0  0  0  0  0  0
   -1.9270   14.7700   -0.3880 C   0  0  0  0  0  0  0  0  0  0  0  0
   -3.4390   14.9820   -2.2590 C   0  0  0  0  0  0  0  0  0  0  0  0
   -2.1290   14.8880   -1.7760 C   0  0  0  0  0  0  0  0  0  0  0  0
   -1.0220   14.9260   -2.7840 C   0  0  0  0  0  0  0  0  0  0  0  0
   -1.2360   14.9060   -3.9860 O   0  0  0  0  0  0  0  0  0  0  0  0
    0.2080   15.0080   -2.2110 O   0  0  0  0  0  0  0  0  0  0  0  0
    0.6500   13.9140   -1.3900 C   0  0  0  0  0  0  0  0  0  0  0  0
    1.3730   12.8960   -2.1070 O   0  0  0  0  0  0  0  0  0  0  0  0
    0.7480   11.8140   -2.6700 C   0  0  0  0  0  0  0  0  0  0  0  0
    0.2560   10.8530   -2.0630 O   0  0  0  0  0  0  0  0  0  0  0  0
    0.8080   11.8660   -4.1150 C   0  0  0  0  0  0  0  0  0  0  0  0
    1.5520   12.7330   -4.9380 C   0  0  0  0  0  0  0  0  0  0  0  0
    0.1530   11.0390   -5.0140 C   0  0  0  0  0  0  0  0  0  0  0  0
    1.4030   12.4750   -6.2290 N   0  0  0  0  0  0  0  0  0  0  0  0
    0.5470   11.4220   -6.2810 N   0  0  0  0  0  0  0  0  0  0  0  0
    0.1940   10.8610   -7.5370 C   0  0  0  0  0  0  0  0  0  0  0  0
   -1.0570   10.2610   -7.7250 C   0  0  0  0  0  0  0  0  0  0  0  0
    1.1090   10.8980   -8.5940 C   0  0  0  0  0  0  0  0  0  0  0  0
   -1.3830    9.7080   -8.9670 C   0  0  0  0  0  0  0  0  0  0  0  0
    0.7800   10.3490   -9.8310 C   0  0  0  0  0  0  0  0  0  0  0  0
   -0.4670    9.7540  -10.0170 C   0  0  0  0  0  0  0  0  0  0  0  0
  1  2  1  0
  2  3  2  0
  2  4  1  0
  4  5  1  0
  5  6  2  0
  5  7  1  0
  6  8  1  0
  7  9  2  0
  8 10  2  0
  9 10  1  0
 10 11  1  0
 11 12  2  0
 11 13  1  0
 13 14  1  0
 14 15  1  0
 15 16  1  0
 16 17  2  0
 16 18  1  0
 18 19  1  0
 18 20  2  0
 19 21  2  0
 20 22  1  0
 21 22  1  0
 22 23  1  0
 23 24  2  0
 23 25  1  0
 24 26  1  0
 25 27  2  0
 26 28  2  0
 27 28  1  0
M  END
