mac-x0411-mac-x0284
     RDKit          3D

 23 24  0  0  0  0  0  0  0  0999 V2000
    0.3510    8.9900   -7.3800 Cl  0  0  0  0  0  0  0  0  0  0  0  0
   -0.8830    9.9440   -6.6270 C   0  0  0  0  0  0  0  0  0  0  0  0
   -0.6730   11.2610   -6.1200 C   0  0  0  0  0  0  0  0  0  0  0  0
   -2.1270    9.3460   -6.5530 C   0  0  0  0  0  0  0  0  0  0  0  0
    0.5980   11.7770   -6.2240 O   0  0  0  0  0  0  0  0  0  0  0  0
   -1.7560   12.0310   -5.5300 C   0  0  0  0  0  0  0  0  0  0  0  0
   -3.1780   10.0450   -5.9890 C   0  0  0  0  0  0  0  0  0  0  0  0
   -1.6100   13.5260   -4.9750 C   0  0  0  0  0  0  0  0  0  0  0  0
    1.0200   12.6010   -5.1290 C   0  0  0  0  0  0  0  0  0  0  0  0
   -3.0030   11.3540   -5.4960 C   0  0  0  0  0  0  0  0  0  0  0  0
    0.9800   11.8680   -3.7910 C   0  0  0  0  0  0  0  0  0  0  0  0
   -2.2560   14.1010   -3.6430 C   0  0  0  0  0  0  0  0  0  0  0  0
    1.5510   12.5880   -2.8000 O   0  0  0  0  0  0  0  0  0  0  0  0
    0.5270   10.7650   -3.5240 O   0  0  0  0  0  0  0  0  0  0  0  0
   -1.5390   14.4150   -2.4430 C   0  0  0  0  0  0  0  0  0  0  0  0
   -3.6630   14.3440   -3.5700 C   0  0  0  0  0  0  0  0  0  0  0  0
   -0.0710   14.2720   -2.2880 C   0  0  0  0  0  0  0  0  0  0  0  0
   -2.1970   14.8960   -1.2880 C   0  0  0  0  0  0  0  0  0  0  0  0
   -4.2970   14.8380   -2.4040 C   0  0  0  0  0  0  0  0  0  0  0  0
    0.5570   14.0910   -1.2670 O   0  0  0  0  0  0  0  0  0  0  0  0
    0.5680   14.3810   -3.4610 O   0  0  0  0  0  0  0  0  0  0  0  0
   -3.5700   15.1130   -1.2490 C   0  0  0  0  0  0  0  0  0  0  0  0
   -4.2380   15.6280   -0.0020 C   0  0  0  0  0  0  0  0  0  0  0  0
  1  2  1  0
  2  3  2  0
  2  4  1  0
  3  5  1  0
  3  6  1  0
  4  7  2  0
  6  8  1  0
  5  9  1  0
  6 10  2  0
  7 10  1  0
  9 11  1  0
  8 12  1  0
 11 13  1  0
 11 14  2  0
 12 15  2  0
 12 16  1  0
 15 17  1  0
 15 18  1  0
 16 19  2  0
 17 20  2  0
 17 21  1  0
 18 22  2  0
 19 22  1  0
 22 23  1  0
M  END
