mac-x0347-diamond-x0895_0_A
     RDKit          3D

 17 18  0  0  0  0  0  0  0  0999 V2000
    1.4240   14.5920   -3.6440 O   0  0  0  0  0  0  0  0  0  0  0  0
    0.7480   14.1800   -2.5620 C   0  0  0  0  0  0  0  0  0  0  0  0
    1.3030   13.6010   -1.6550 O   0  0  0  0  0  0  0  0  0  0  0  0
   -0.6930   14.4810   -2.5990 C   0  0  0  0  0  0  0  0  0  0  0  0
   -1.4960   14.2360   -1.4920 C   0  0  0  0  0  0  0  0  0  0  0  0
   -1.2750   15.0090   -3.7440 C   0  0  0  0  0  0  0  0  0  0  0  0
   -2.8560   14.5170   -1.5440 C   0  0  0  0  0  0  0  0  0  0  0  0
   -2.5960   15.3040   -3.8450 N   0  0  0  0  0  0  0  0  0  0  0  0
   -3.3560   15.0520   -2.7440 C   0  0  0  0  0  0  0  0  0  0  0  0
   -3.7440   14.2300   -0.3470 C   0  0  1  0  0  0  0  0  0  0  0  0
   -3.3040   14.7460    1.0340 C   0  0  0  0  0  0  0  0  0  0  0  0
   -5.1860   14.5070   -0.6510 C   0  0  0  0  0  0  0  0  0  0  0  0
   -2.1260   14.8080    1.4560 O   0  0  0  0  0  0  0  0  0  0  0  0
   -5.5530   14.9620   -1.7270 O   0  0  0  0  0  0  0  0  0  0  0  0
   -4.3880   15.1530    1.9610 C   0  0  0  0  0  0  0  0  0  0  0  0
   -6.1540   14.2060    0.4600 C   0  0  0  0  0  0  0  0  0  0  0  0
   -5.6760   14.8880    1.6870 C   0  0  0  0  0  0  0  0  0  0  0  0
  1  2  1  0
  2  3  2  0
  2  4  1  0
  4  5  2  0
  4  6  1  0
  5  7  1  0
  6  8  2  0
  7  9  2  0
  8  9  1  0
 10  7  1  6
 10 11  1  0
 10 12  1  0
 11 13  2  0
 12 14  2  0
 11 15  1  0
 12 16  1  0
 15 17  2  0
 16 17  1  0
M  END
