mac-x0360-mac-x0326
     RDKit          3D

 25 27  0  0  0  0  0  0  0  0999 V2000
   -6.6700   11.9350    0.0640 Cl  0  0  0  0  0  0  0  0  0  0  0  0
   -5.1510   11.9670   -0.7750 C   0  0  0  0  0  0  0  0  0  0  0  0
   -4.8890   11.1690   -1.8690 C   0  0  0  0  0  0  0  0  0  0  0  0
   -4.1450   12.8190   -0.3510 C   0  0  0  0  0  0  0  0  0  0  0  0
   -2.8940   12.9200   -0.9540 C   0  0  0  0  0  0  0  0  0  0  0  0
   -3.6740   11.2070   -2.5250 C   0  0  0  0  0  0  0  0  0  0  0  0
   -3.3920   10.1720   -3.9080 Cl  0  0  0  0  0  0  0  0  0  0  0  0
   -1.5690   13.9430   -0.4950 S   0  0  0  0  0  0  0  0  0  0  0  0
   -2.6770   12.0790   -2.0700 C   0  0  0  0  0  0  0  0  0  0  0  0
   -1.1330   15.0870   -1.5190 N   0  0  0  0  0  0  0  0  0  0  0  0
    0.0800   12.7140   -0.4860 O   0  0  0  0  0  0  0  0  0  0  0  0
   -1.6290   14.3800    1.1530 C   0  0  0  0  0  0  0  0  0  0  0  0
   -2.7380   14.0690    0.5580 C   0  0  0  0  0  0  0  0  0  0  0  0
   -0.3350   14.5410    0.9030 C   0  0  0  0  0  0  0  0  0  0  0  0
   -0.0610   14.3170   -0.4530 C   0  0  0  0  0  0  0  0  0  0  0  0
   -2.4890   13.8320   -0.8250 C   0  0  0  0  0  0  0  0  0  0  0  0
   -1.0960   13.9620   -1.3620 C   0  0  0  0  0  0  0  0  0  0  0  0
    1.3270   14.3560   -1.4640 S   0  0  0  0  0  0  0  0  0  0  0  0
    0.5670   13.9430   -2.9650 C   0  0  0  0  0  0  0  0  0  0  0  0
   -0.6830   13.7900   -2.6150 N   0  0  0  0  0  0  0  0  0  0  0  0
    1.2840   13.8300   -4.2680 C   0  0  0  0  0  0  0  0  0  0  0  0
    0.5550   12.9850   -5.2560 C   0  0  0  0  0  0  0  0  0  0  0  0
    1.5660   12.3570   -6.0910 C   0  0  0  0  0  0  0  0  0  0  0  0
    1.2550   11.6840   -7.2600 O   0  0  0  0  0  0  0  0  0  0  0  0
    2.7540   12.4410   -5.7430 O   0  0  0  0  0  0  0  0  0  0  0  0
  1  2  1  0
  2  3  2  0
  2  4  1  0
  4  5  2  0
  3  6  1  0
  6  7  1  0
  5  8  1  0
  5  9  1  0
  6  9  2  0
  8 10  1  0
  8 11  2  0
  8 12  1  0
 12 13  2  0
 12 14  1  0
 14 15  2  0
 13 16  1  0
 15 17  1  0
 16 17  2  0
 15 18  1  0
 18 19  1  0
 17 20  1  0
 19 20  2  0
 19 21  1  0
 21 22  1  0
 22 23  1  0
 23 24  1  0
 23 25  2  0
M  END
