mac-x0206-diamond-x0290_0_A
     RDKit          3D

 22 23  0  0  0  0  0  0  0  0999 V2000
   -4.5290   13.7070   -1.2130 N   0  0  0  0  0  0  0  0  0  0  0  0
   -4.9130   14.7070   -0.2210 C   0  0  2  0  0  0  0  0  0  0  0  0
   -4.2860   15.9070   -0.6480 O   0  0  0  0  0  0  0  0  0  0  0  0
   -4.6560   14.2730    1.2860 C   0  0  1  0  0  0  0  0  0  0  0  0
   -6.3860   14.9480   -0.1000 C   0  0  0  0  0  0  0  0  0  0  0  0
   -5.6630   13.1140    1.6590 C   0  0  0  0  0  0  0  0  0  0  0  0
   -3.3210   13.7780    1.6470 N   0  0  0  0  0  0  0  0  0  0  0  0
   -7.2360   15.2950   -1.1490 C   0  0  0  0  0  0  0  0  0  0  0  0
   -6.9350   14.8060    1.1950 C   0  0  0  0  0  0  0  0  0  0  0  0
   -6.7090   15.4280   -2.4150 O   0  0  0  0  0  0  0  0  0  0  0  0
   -6.4790   12.5940    0.5320 N   0  0  0  0  0  0  0  0  0  0  0  0
   -8.5940   15.5000   -0.9030 C   0  0  0  0  0  0  0  0  0  0  0  0
   -8.2770   15.0050    1.4460 C   0  0  0  0  0  0  0  0  0  0  0  0
   -2.2320   14.1650    0.9230 C   0  0  0  0  0  0  0  0  0  0  0  0
   -7.9040   12.6020    0.8390 C   0  0  0  0  0  0  0  0  0  0  0  0
   -9.1100   15.3550    0.3940 C   0  0  0  0  0  0  0  0  0  0  0  0
   -1.1850   14.5270    1.6640 N   0  0  0  0  0  0  0  0  0  0  0  0
   -2.2160   14.1720   -0.4650 C   0  0  0  0  0  0  0  0  0  0  0  0
   -0.0810   14.9050    0.9980 C   0  0  0  0  0  0  0  0  0  0  0  0
   -1.0620   14.5660   -1.1340 C   0  0  0  0  0  0  0  0  0  0  0  0
   -1.0120   14.5840   -2.6270 C   0  0  0  0  0  0  0  0  0  0  0  0
    0.0320   14.9400   -0.3730 C   0  0  0  0  0  0  0  0  0  0  0  0
  2  1  1  6
  2  3  1  0
  2  4  1  0
  2  5  1  0
  4  6  1  6
  4  7  1  0
  5  8  2  0
  5  9  1  0
  8 10  1  0
  6 11  1  0
  8 12  1  0
  9 13  2  0
  7 14  1  0
 11 15  1  0
 12 16  2  0
 13 16  1  0
 14 17  2  0
 14 18  1  0
 17 19  1  0
 18 20  2  0
 20 21  1  0
 19 22  2  0
 20 22  1  0
M  END
