mac-x0584-mac-x0328
     RDKit          3D

 27 31  0  0  0  0  0  0  0  0999 V2000
   -3.0430   13.9580   -2.9020 C   0  0  0  0  0  0  0  0  0  0  0  0
   -2.2950   14.8440   -2.5300 N   0  0  0  0  0  0  0  0  0  0  0  0
   -0.9740   15.1990   -2.7120 C   0  0  1  0  0  0  0  0  0  0  0  0
   -4.2760   14.2100   -2.2290 C   0  0  0  0  0  0  0  0  0  0  0  0
   -4.3750   13.8800   -0.8740 C   0  0  0  0  0  0  0  0  0  0  0  0
   -5.3100   14.8000   -2.9150 C   0  0  0  0  0  0  0  0  0  0  0  0
   -5.5440   14.1550   -0.1890 C   0  0  0  0  0  0  0  0  0  0  0  0
   -6.4820   15.0780   -2.2290 C   0  0  0  0  0  0  0  0  0  0  0  0
   -0.3820   14.1550   -3.6770 C   0  0  2  0  0  0  0  0  0  0  0  0
   -1.0570   16.5130   -3.4880 C   0  0  0  0  0  0  0  0  0  0  0  0
   -1.0240   15.1590   -1.1650 C   0  0  0  0  0  0  0  0  0  0  0  0
   -6.5880   14.7570   -0.8770 C   0  0  0  0  0  0  0  0  0  0  0  0
    0.6710   13.2270   -3.1160 C   0  0  0  0  0  0  0  0  0  0  0  0
   -0.0100   14.9260   -4.9480 C   0  0  0  0  0  0  0  0  0  0  0  0
   -1.0090   16.0700   -4.9510 C   0  0  0  0  0  0  0  0  0  0  0  0
    0.0050   14.8100   -0.3100 N   0  0  0  0  0  0  0  0  0  0  0  0
   -2.2110   15.4270   -0.5410 C   0  0  0  0  0  0  0  0  0  0  0  0
   -7.7580   15.0530   -0.2530 O   0  0  0  0  0  0  0  0  0  0  0  0
    1.4920   12.4690   -4.1870 C   0  0  0  0  0  0  0  0  0  0  0  0
    0.1390   11.8270   -2.7230 C   0  0  0  0  0  0  0  0  0  0  0  0
   -0.2530   14.6760    1.0410 C   0  0  0  0  0  0  0  0  0  0  0  0
   -2.3460   15.2990    0.9210 C   0  0  0  0  0  0  0  0  0  0  0  0
   -3.5370   15.8230   -0.9070 C   0  0  0  0  0  0  0  0  0  0  0  0
    0.2820   11.4990   -4.2080 C   0  0  0  0  0  0  0  0  0  0  0  0
   -1.3310   14.8980    1.6830 N   0  0  0  0  0  0  0  0  0  0  0  0
   -3.5280   15.5730    1.3740 N   0  0  0  0  0  0  0  0  0  0  0  0
   -4.2300   15.8910    0.2350 C   0  0  0  0  0  0  0  0  0  0  0  0
  1  2  2  3
  3  2  1  6
  1  4  1  0
  4  5  2  0
  4  6  1  0
  5  7  1  0
  6  8  2  0
  3  9  1  0
  3 10  1  0
  3 11  1  0
  7 12  2  0
  8 12  1  0
  9 13  1  1
  9 14  1  0
 10 15  1  0
 14 15  1  0
 11 16  1  0
 11 17  2  0
 12 18  1  0
 13 19  1  0
 13 20  1  0
 16 21  1  0
 17 22  1  0
 17 23  1  0
 19 24  1  0
 20 24  1  0
 21 25  2  0
 22 25  1  0
 22 26  2  0
 23 27  2  0
 26 27  1  0
M  END
