mac-x0206-mac-x0572
     RDKit          3D

 16 17  0  0  0  0  0  0  0  0999 V2000
   -3.3700   13.3940   -0.8220 N   0  0  0  0  0  0  0  0  0  0  0  0
   -4.6370   13.7680   -1.2030 C   0  0  0  0  0  0  0  0  0  0  0  0
   -5.1110   13.3520   -2.2450 O   0  0  0  0  0  0  0  0  0  0  0  0
   -5.2990   14.7730   -0.2720 C   0  0  1  0  0  0  0  0  0  0  0  0
   -6.8080   14.7440   -0.5360 C   0  0  0  0  0  0  0  0  0  0  0  0
   -4.9210   14.3300    1.1750 C   0  0  2  0  0  0  0  0  0  0  0  0
   -4.4060   15.7800   -0.9080 C   0  0  0  0  0  0  0  0  0  0  0  0
   -7.2240   14.7150   -1.8690 O   0  0  0  0  0  0  0  0  0  0  0  0
   -7.7130   14.7280    0.4770 C   0  0  0  0  0  0  0  0  0  0  0  0
   -6.0080   14.6150    2.1860 C   0  0  0  0  0  0  0  0  0  0  0  0
   -3.4980   14.6840    1.5710 C   0  0  0  0  0  0  0  0  0  0  0  0
   -3.2010   16.0410   -0.4040 C   0  0  0  0  0  0  0  0  0  0  0  0
   -9.0660   14.6790    0.1910 O   0  0  0  0  0  0  0  0  0  0  0  0
   -7.3020   14.7760    1.8750 C   0  0  0  0  0  0  0  0  0  0  0  0
   -2.7210   15.4620    0.8140 C   0  0  0  0  0  0  0  0  0  0  0  0
   -8.2940   15.0210    2.9840 C   0  0  0  0  0  0  0  0  0  0  0  0
  1  2  1  0
  2  3  2  0
  4  2  1  6
  4  5  1  0
  4  6  1  0
  4  7  1  0
  5  8  1  0
  5  9  2  0
  6 10  1  1
  6 11  1  0
  7 12  2  0
  9 13  1  0
  9 14  1  0
 10 14  2  0
 11 15  2  0
 12 15  1  0
 14 16  1  0
M  END
