mac-x0381-mac-x0116
     RDKit          3D

 30 34  0  0  0  0  0  0  0  0999 V2000
   -8.7260   13.1870    5.0970 N   0  0  0  0  0  0  0  0  0  0  0  0
   -8.3860   14.1360    4.1920 C   0  0  0  0  0  0  0  0  0  0  0  0
   -7.1260   14.2110    4.0270 N   0  0  0  0  0  0  0  0  0  0  0  0
   -9.5370   14.8670    3.5720 C   0  0  0  0  0  0  0  0  0  0  0  0
   -6.4570   15.0910    3.1220 C   0  0  0  0  0  0  0  0  0  0  0  0
   -9.4960   15.5450    2.3350 C   0  0  0  0  0  0  0  0  0  0  0  0
  -10.7120   14.8270    4.3160 C   0  0  0  0  0  0  0  0  0  0  0  0
   -5.4300   14.3410    2.2560 C   0  0  2  0  0  0  0  0  0  0  0  0
  -10.6740   16.1740    1.8490 C   0  0  0  0  0  0  0  0  0  0  0  0
  -11.8620   15.4430    3.8460 C   0  0  0  0  0  0  0  0  0  0  0  0
   -4.7740   15.2770    1.3400 N   0  0  0  0  0  0  0  0  0  0  0  0
  -11.8660   16.1120    2.6190 C   0  0  0  0  0  0  0  0  0  0  0  0
  -10.7090   16.8590    0.6180 C   0  0  0  0  0  0  0  0  0  0  0  0
   -6.0610   13.0650    1.8090 C   0  0  0  0  0  0  0  0  0  0  0  0
  -13.0420   16.7150    2.1490 C   0  0  0  0  0  0  0  0  0  0  0  0
  -11.8930   17.4510    0.1640 C   0  0  0  0  0  0  0  0  0  0  0  0
   -6.0630   12.6860    0.4960 O   0  0  0  0  0  0  0  0  0  0  0  0
   -6.7030   12.1200    2.5750 C   0  0  0  0  0  0  0  0  0  0  0  0
   -3.8930   15.0720    0.3020 C   0  0  0  0  0  0  0  0  0  0  0  0
  -13.0580   17.3760    0.9270 C   0  0  0  0  0  0  0  0  0  0  0  0
   -7.1270   11.1120    1.6990 C   0  0  0  0  0  0  0  0  0  0  0  0
   -6.7140   11.4960    0.4460 C   0  0  0  0  0  0  0  0  0  0  0  0
   -4.3030   15.1650   -1.0060 N   0  0  0  0  0  0  0  0  0  0  0  0
   -2.5830   14.7880    0.4950 C   0  0  0  0  0  0  0  0  0  0  0  0
   -3.4590   14.9620   -2.0520 C   0  0  0  0  0  0  0  0  0  0  0  0
   -1.7240   14.6150   -0.6820 C   0  0  0  0  0  0  0  0  0  0  0  0
   -1.7930   14.6200    1.6110 N   0  0  0  0  0  0  0  0  0  0  0  0
   -2.1960   14.6890   -1.9620 N   0  0  0  0  0  0  0  0  0  0  0  0
   -0.5020   14.4060   -0.3010 N   0  0  0  0  0  0  0  0  0  0  0  0
   -0.6120   14.4210    1.0880 C   0  0  0  0  0  0  0  0  0  0  0  0
  1  2  1  0
  2  3  2  3
  2  4  1  0
  3  5  1  0
  4  6  2  0
  4  7  1  0
  8  5  1  6
  6  9  1  0
  7 10  2  0
  8 11  1  0
  9 12  2  0
 10 12  1  0
  9 13  1  0
  8 14  1  0
 12 15  1  0
 13 16  2  0
 14 17  1  0
 14 18  2  0
 11 19  1  0
 15 20  2  0
 16 20  1  0
 18 21  1  0
 17 22  1  0
 21 22  2  0
 19 23  1  0
 19 24  2  0
 23 25  1  0
 24 26  1  0
 24 27  1  0
 25 28  2  0
 26 28  1  0
 26 29  2  0
 27 30  2  0
 29 30  1  0
M  END
