mac-x0180-mac-x0346
     RDKit          3D

 14 14  0  0  0  0  0  0  0  0999 V2000
   -7.7730   14.5720    1.5340 C   0  0  0  0  0  0  0  0  0  0  0  0
   -6.7380   14.4410    0.4210 C   0  0  1  0  0  0  0  0  0  0  0  0
   -7.2440   15.2110   -0.7770 N   0  0  0  0  0  0  0  0  0  0  0  0
   -5.4210   14.9030    0.8760 N   0  0  0  0  0  0  0  0  0  0  0  0
   -7.1960   14.5910   -1.8450 O   0  0  0  0  0  0  0  0  0  0  0  0
   -4.3600   14.9050   -0.0330 C   0  0  0  0  0  0  0  0  0  0  0  0
   -3.0570   14.6950    0.4380 C   0  0  0  0  0  0  0  0  0  0  0  0
   -4.5320   15.1080   -1.4100 C   0  0  0  0  0  0  0  0  0  0  0  0
   -1.9610   14.6810   -0.4370 C   0  0  0  0  0  0  0  0  0  0  0  0
   -3.4510   15.0970   -2.2920 C   0  0  0  0  0  0  0  0  0  0  0  0
   -2.1640   14.8820   -1.8090 C   0  0  0  0  0  0  0  0  0  0  0  0
   -1.0480   14.8850   -2.7810 C   0  0  0  0  0  0  0  0  0  0  0  0
   -1.2090   14.8640   -3.9890 O   0  0  0  0  0  0  0  0  0  0  0  0
    0.1600   14.9290   -2.1920 O   0  0  0  0  0  0  0  0  0  0  0  0
  2  1  1  1
  2  3  1  0
  2  4  1  0
  3  5  2  0
  4  6  1  0
  6  7  2  0
  6  8  1  0
  7  9  1  0
  8 10  2  0
  9 11  2  0
 10 11  1  0
 11 12  1  0
 12 13  2  0
 12 14  1  0
M  END
