mac-x0116-diamond-x0895_0_A
     RDKit          3D

 17 19  0  0  0  0  0  0  0  0999 V2000
   -6.0050   14.8070    1.5200 C   0  0  0  0  0  0  0  0  0  0  0  0
   -4.5850   15.1630    1.6430 N   0  0  0  0  0  0  0  0  0  0  0  0
   -3.7380   14.6060    0.6050 C   0  0  1  0  0  0  0  0  0  0  0  0
   -6.3300   13.3530    1.5920 C   0  0  0  0  0  0  0  0  0  0  0  0
   -6.2180   12.6250    0.4420 O   0  0  0  0  0  0  0  0  0  0  0  0
   -6.7580   12.5450    2.6230 C   0  0  0  0  0  0  0  0  0  0  0  0
   -6.9230   11.2600    2.0780 C   0  0  0  0  0  0  0  0  0  0  0  0
   -6.5820   11.3570    0.7510 C   0  0  0  0  0  0  0  0  0  0  0  0
   -4.1380   15.2530   -0.6450 N   0  0  0  0  0  0  0  0  0  0  0  0
   -2.1740   14.5370    0.7860 C   0  0  1  0  0  0  0  0  0  0  0  0
   -1.7450   13.6600    1.7630 O   0  0  0  0  0  0  0  0  0  0  0  0
   -3.6050   14.6310   -1.8650 C   0  0  0  0  0  0  0  0  0  0  0  0
   -1.6480   14.4500   -0.6450 C   0  0  2  0  0  0  0  0  0  0  0  0
   -1.2700   15.5270    1.1820 N   0  0  0  0  0  0  0  0  0  0  0  0
   -2.4530   13.7530   -1.5930 N   0  0  0  0  0  0  0  0  0  0  0  0
   -0.3280   13.9890   -0.3770 N   0  0  0  0  0  0  0  0  0  0  0  0
   -0.0340   14.8300    0.8050 C   0  0  0  0  0  0  0  0  0  0  0  0
  1  2  1  0
  3  2  1  1
  1  4  1  0
  4  5  1  0
  4  6  2  0
  6  7  1  0
  5  8  1  0
  7  8  2  0
  3  9  1  0
  3 10  1  0
 10 11  1  1
  9 12  1  0
 10 13  1  0
 10 14  1  0
 12 15  1  0
 13 15  1  6
 13 16  1  0
 14 17  1  0
 16 17  1  0
M  END
