mac-x0404-mac-x0206
     RDKit          3D

 27 29  0  0  0  0  0  0  0  0999 V2000
    1.1970   13.0340   -2.1130 O   0  0  0  0  0  0  0  0  0  0  0  0
    1.1990   12.2260   -3.1880 C   0  0  0  0  0  0  0  0  0  0  0  0
    0.5850   11.1670   -3.1410 O   0  0  0  0  0  0  0  0  0  0  0  0
    2.0140   12.7410   -4.3850 C   0  0  0  0  0  0  0  0  0  0  0  0
    1.6560   13.9860   -4.9500 O   0  0  0  0  0  0  0  0  0  0  0  0
    0.3380   14.2990   -4.9380 C   0  0  0  0  0  0  0  0  0  0  0  0
   -0.0020   15.6630   -5.0980 C   0  0  0  0  0  0  0  0  0  0  0  0
   -0.6350   13.3360   -4.7690 C   0  0  0  0  0  0  0  0  0  0  0  0
   -1.3450   16.0610   -5.0640 C   0  0  0  0  0  0  0  0  0  0  0  0
   -1.9470   13.7080   -4.7280 C   0  0  0  0  0  0  0  0  0  0  0  0
    0.9840   16.6280   -5.2850 C   0  0  0  0  0  0  0  0  0  0  0  0
   -2.3050   15.0330   -4.8560 C   0  0  0  0  0  0  0  0  0  0  0  0
   -1.6280   17.4420   -5.2270 C   0  0  0  0  0  0  0  0  0  0  0  0
    0.6990   17.9790   -5.4440 C   0  0  0  0  0  0  0  0  0  0  0  0
   -3.7490   15.2290   -4.7060 C   0  0  0  0  0  0  0  0  0  0  0  0
   -0.6190   18.3890   -5.4170 C   0  0  0  0  0  0  0  0  0  0  0  0
   -3.6640   15.3820   -3.1810 C   0  0  0  0  0  0  0  0  0  0  0  0
   -4.8410   15.1590   -2.3780 N   0  0  0  0  0  0  0  0  0  0  0  0
   -4.6840   15.1260   -1.0910 C   0  0  0  0  0  0  0  0  0  0  0  0
   -3.4060   15.2850   -0.6120 N   0  0  0  0  0  0  0  0  0  0  0  0
   -5.7710   14.9430   -0.1110 C   0  0  0  0  0  0  0  0  0  0  0  0
   -7.0630   14.7550   -0.5830 C   0  0  0  0  0  0  0  0  0  0  0  0
   -5.5230   14.9620    1.2680 C   0  0  0  0  0  0  0  0  0  0  0  0
   -7.2840   14.7370   -1.9290 O   0  0  0  0  0  0  0  0  0  0  0  0
   -8.1250   14.5860    0.3000 C   0  0  0  0  0  0  0  0  0  0  0  0
   -6.5990   14.7940    2.1540 C   0  0  0  0  0  0  0  0  0  0  0  0
   -7.8890   14.6070    1.6710 C   0  0  0  0  0  0  0  0  0  0  0  0
  1  2  1  0
  2  3  2  0
  2  4  1  0
  4  5  1  0
  5  6  1  0
  6  7  2  0
  6  8  1  0
  7  9  1  0
  8 10  2  0
  7 11  1  0
  9 12  2  0
 10 12  1  0
  9 13  1  0
 11 14  2  0
 12 15  1  0
 13 16  2  0
 14 16  1  0
 15 17  1  0
 17 18  1  0
 18 19  2  3
 19 20  1  0
 19 21  1  0
 21 22  2  0
 21 23  1  0
 22 24  1  0
 22 25  1  0
 23 26  2  0
 25 27  2  0
 26 27  1  0
M  END
