mac-x0305-mac-x0115
     RDKit          3D

 21 22  0  0  0  0  0  0  0  0999 V2000
   -0.2100   12.5680   -0.9410 O   0  0  0  0  0  0  0  0  0  0  0  0
   -1.1410   12.3520   -2.0070 C   0  0  0  0  0  0  0  0  0  0  0  0
   -1.9220   13.6240   -2.3860 C   0  0  1  0  0  0  0  0  0  0  0  0
   -3.3710   13.6080   -2.1240 N   0  0  0  0  0  0  0  0  0  0  0  0
   -1.2490   14.7720   -1.7190 C   0  0  1  0  0  0  0  0  0  0  0  0
   -1.4220   14.7360   -0.1520 C   0  0  2  0  0  0  0  0  0  0  0  0
   -4.0970   14.7030   -1.6870 C   0  0  0  0  0  0  0  0  0  0  0  0
    0.1810   14.9130   -2.2380 N   0  0  0  0  0  0  0  0  0  0  0  0
   -1.4150   13.3530    0.2420 O   0  0  0  0  0  0  0  0  0  0  0  0
   -2.7930   15.2080    0.4030 C   0  0  0  0  0  0  0  0  0  0  0  0
   -3.8890   15.4350   -0.5870 C   0  0  0  0  0  0  0  0  0  0  0  0
    1.2070   14.5780   -1.4250 C   0  0  0  0  0  0  0  0  0  0  0  0
   -0.1920   15.2440    0.5650 C   0  0  0  0  0  0  0  0  0  0  0  0
    0.5470   15.7750   -3.4080 C   0  0  0  0  0  0  0  0  0  0  0  0
    2.6770   13.9320   -1.8970 S   0  0  0  0  0  0  0  0  0  0  0  0
    1.0090   14.8190   -0.1180 N   0  0  0  0  0  0  0  0  0  0  0  0
    0.0930   15.3590   -4.8100 C   0  0  0  0  0  0  0  0  0  0  0  0
   -0.7500   16.3770   -5.3730 O   0  0  0  0  0  0  0  0  0  0  0  0
   -0.3000   17.7210   -5.1120 C   0  0  0  0  0  0  0  0  0  0  0  0
   -1.4500   18.6410   -5.4990 C   0  0  0  0  0  0  0  0  0  0  0  0
    0.9590   18.0530   -5.8990 C   0  0  0  0  0  0  0  0  0  0  0  0
  1  2  1  0
  3  2  1  1
  3  4  1  0
  3  5  1  0
  5  6  1  0
  4  7  1  0
  5  8  1  1
  6  9  1  1
  6 10  1  0
  7 11  2  0
 10 11  1  0
  8 12  1  0
  6 13  1  0
  8 14  1  0
 12 15  2  0
 12 16  1  0
 13 16  1  0
 14 17  1  0
 17 18  1  0
 18 19  1  0
 19 20  1  0
 19 21  1  0
M  END
