mac-x0565-mac-x0326
     RDKit          3D

 17 18  0  0  0  0  0  0  0  0999 V2000
   -5.4760   15.1090    0.8900 O   0  0  0  0  0  0  0  0  0  0  0  0
   -5.9780   14.9880   -0.3500 C   0  0  0  0  0  0  0  0  0  0  0  0
   -7.1780   14.9030   -0.5530 O   0  0  0  0  0  0  0  0  0  0  0  0
   -4.9160   14.9720   -1.3840 C   0  0  0  0  0  0  0  0  0  0  0  0
   -3.5470   14.9180   -1.0590 C   0  0  0  0  0  0  0  0  0  0  0  0
   -5.3200   15.0110   -2.7350 C   0  0  0  0  0  0  0  0  0  0  0  0
   -2.6430   14.9050   -2.1080 C   0  0  0  0  0  0  0  0  0  0  0  0
   -4.3750   14.9960   -3.7690 C   0  0  0  0  0  0  0  0  0  0  0  0
   -3.0520   14.9470   -3.4200 C   0  0  0  0  0  0  0  0  0  0  0  0
   -1.2720   14.8510   -2.0310 O   0  0  0  0  0  0  0  0  0  0  0  0
   -1.9990   14.9340   -4.2800 O   0  0  0  0  0  0  0  0  0  0  0  0
   -1.0270   14.3750   -3.3770 C   0  0  1  0  0  0  0  0  0  0  0  0
    0.4040   14.6330   -3.8770 C   0  0  0  0  0  0  0  0  0  0  0  0
    1.0500   13.3320   -4.3620 C   0  0  0  0  0  0  0  0  0  0  0  0
    1.1520   12.3620   -3.2210 C   0  0  0  0  0  0  0  0  0  0  0  0
    0.4140   11.2530   -3.4090 O   0  0  0  0  0  0  0  0  0  0  0  0
    1.8050   12.4930   -2.2090 O   0  0  0  0  0  0  0  0  0  0  0  0
  1  2  1  0
  2  3  2  0
  2  4  1  0
  4  5  2  0
  4  6  1  0
  5  7  1  0
  6  8  2  0
  7  9  2  0
  8  9  1  0
  7 10  1  0
  9 11  1  0
 10 12  1  0
 11 12  1  0
 12 13  1  6
 13 14  1  0
 14 15  1  0
 15 16  1  0
 15 17  2  0
M  END
