mac-x0412-diamond-x0128_0_A
     RDKit          3D

 20 22  0  0  0  0  0  0  0  0999 V2000
   -7.9990   14.7550   -0.2060 O   0  0  0  0  0  0  0  0  0  0  0  0
   -6.9540   14.8100    0.4450 C   0  0  0  0  0  0  0  0  0  0  0  0
   -6.8970   14.7720    1.8750 N   0  0  0  0  0  0  0  0  0  0  0  0
   -5.6590   14.9330   -0.3120 C   0  0  0  0  0  0  0  0  0  0  0  0
   -4.4590   15.0130    0.3960 C   0  0  0  0  0  0  0  0  0  0  0  0
   -5.6580   14.8850    2.4720 C   0  0  0  0  0  0  0  0  0  0  0  0
   -5.6350   14.9670   -1.7150 C   0  0  0  0  0  0  0  0  0  0  0  0
   -7.9750   15.1580    2.7550 C   0  0  0  0  0  0  0  0  0  0  0  0
   -4.4880   14.9940    1.8380 C   0  0  0  0  0  0  0  0  0  0  0  0
   -3.2460   15.1130   -0.2830 C   0  0  0  0  0  0  0  0  0  0  0  0
   -4.4160   15.0700   -2.3920 C   0  0  0  0  0  0  0  0  0  0  0  0
   -9.1060   15.3230    2.3020 O   0  0  0  0  0  0  0  0  0  0  0  0
   -7.6890   15.3600    4.1220 N   0  0  0  0  0  0  0  0  0  0  0  0
   -3.2250   15.1380   -1.6760 C   0  0  0  0  0  0  0  0  0  0  0  0
   -8.4640   16.1080    5.0550 C   0  0  0  0  0  0  0  0  0  0  0  0
   -9.2030   17.2520    4.7570 C   0  0  0  0  0  0  0  0  0  0  0  0
   -8.5070   15.6760    6.3900 C   0  0  0  0  0  0  0  0  0  0  0  0
   -9.9440   17.9540    5.6550 N   0  0  0  0  0  0  0  0  0  0  0  0
   -9.2620   16.3820    7.3340 C   0  0  0  0  0  0  0  0  0  0  0  0
   -9.9550   17.5050    6.9200 C   0  0  0  0  0  0  0  0  0  0  0  0
  1  2  2  0
  2  3  1  0
  2  4  1  0
  4  5  2  0
  3  6  1  0
  4  7  1  0
  3  8  1  0
  5  9  1  0
  6  9  2  0
  5 10  1  0
  7 11  2  0
  8 12  2  0
  8 13  1  0
 10 14  2  0
 11 14  1  0
 13 15  1  0
 15 16  2  0
 15 17  1  0
 16 18  1  0
 17 19  2  0
 18 20  2  0
 19 20  1  0
M  END
