mac-x0572-mac-x0148
     RDKit          3D

 27 31  0  0  0  0  0  0  0  0999 V2000
   -7.9390   13.9640    3.1520 C   0  0  0  0  0  0  0  0  0  0  0  0
   -7.3380   14.6670    1.9300 C   0  0  1  0  0  0  0  0  0  0  0  0
   -5.9390   15.0380    2.1940 N   0  0  0  0  0  0  0  0  0  0  0  0
   -7.5950   13.9210    0.6090 C   0  0  1  0  0  0  0  0  0  0  0  0
   -8.9970   13.9960    0.3420 O   0  0  0  0  0  0  0  0  0  0  0  0
   -6.7780   14.4780   -0.5760 C   0  0  0  0  0  0  0  0  0  0  0  0
   -5.0120   15.3490    1.0860 C   0  0  2  0  0  0  0  0  0  0  0  0
   -7.0910   14.1630   -1.7240 O   0  0  0  0  0  0  0  0  0  0  0  0
   -5.6130   15.4380   -0.3290 C   0  0  1  0  0  0  0  0  0  0  0  0
   -3.7690   14.4500    1.1040 C   0  0  0  0  0  0  0  0  0  0  0  0
   -2.6740   14.8500    0.0630 C   0  0  1  0  0  0  0  0  0  0  0  0
   -4.5780   15.6310   -1.3860 C   0  0  0  0  0  0  0  0  0  0  0  0
   -3.2800   15.4040   -1.2020 C   0  0  0  0  0  0  0  0  0  0  0  0
   -1.6590   15.6310    0.7830 N   0  0  0  0  0  0  0  0  0  0  0  0
   -2.0280   13.5680   -0.3830 C   0  0  0  0  0  0  0  0  0  0  0  0
   -0.3360   15.7260    0.1990 C   0  0  0  0  0  0  0  0  0  0  0  0
   -0.7440   13.7490   -1.1650 C   0  0  1  0  0  0  0  0  0  0  0  0
   -0.6480   14.3010   -2.5240 N   0  0  0  0  0  0  0  0  0  0  0  0
    0.1700   14.4780   -0.3160 N   0  0  0  0  0  0  0  0  0  0  0  0
   -1.8190   14.1880   -3.4360 C   0  0  1  0  0  0  0  0  0  0  0  0
    0.5840   13.7780   -3.1090 C   0  0  0  0  0  0  0  0  0  0  0  0
   -2.1430   15.4550   -4.2360 C   0  0  0  0  0  0  0  0  0  0  0  0
   -1.8230   13.0940   -4.5310 C   0  0  1  0  0  0  0  0  0  0  0  0
    0.4200   12.4370   -3.8060 C   0  0  0  0  0  0  0  0  0  0  0  0
   -2.6430   13.6810   -5.6690 C   0  0  0  0  0  0  0  0  0  0  0  0
   -2.9160   15.0580   -5.3810 O   0  0  0  0  0  0  0  0  0  0  0  0
   -0.4440   12.6570   -5.0150 C   0  0  0  0  0  0  0  0  0  0  0  0
  2  1  1  1
  2  3  1  0
  2  4  1  0
  4  5  1  6
  4  6  1  0
  3  7  1  0
  6  8  2  0
  6  9  1  0
  7  9  1  0
  7 10  1  6
 11 10  1  1
  9 12  1  6
 11 13  1  0
 12 13  2  0
 11 14  1  0
 11 15  1  0
 14 16  1  0
 15 17  1  0
 17 18  1  6
 16 19  1  0
 17 19  1  0
 18 20  1  0
 18 21  1  0
 20 22  1  6
 20 23  1  0
 21 24  1  0
 23 25  1  6
 22 26  1  0
 25 26  1  0
 23 27  1  0
 24 27  1  0
M  END
