mac-x0360-mac-x0375
     RDKit          3D

 26 27  0  0  0  0  0  0  0  0999 V2000
   -7.6350   11.6260    1.7390 Cl  0  0  0  0  0  0  0  0  0  0  0  0
   -6.4360   11.8760    0.5320 C   0  0  0  0  0  0  0  0  0  0  0  0
   -6.2680   10.9260   -0.4700 C   0  0  0  0  0  0  0  0  0  0  0  0
   -5.6460   13.0230    0.5640 C   0  0  0  0  0  0  0  0  0  0  0  0
   -4.6750   13.2130   -0.4260 C   0  0  0  0  0  0  0  0  0  0  0  0
   -5.2950   11.1200   -1.4480 C   0  0  0  0  0  0  0  0  0  0  0  0
   -5.0900    9.9330   -2.6780 Cl  0  0  0  0  0  0  0  0  0  0  0  0
   -3.6670   14.6810   -0.4040 S   0  0  0  0  0  0  0  0  0  0  0  0
   -4.4920   12.2600   -1.4380 C   0  0  0  0  0  0  0  0  0  0  0  0
   -2.5060   14.3580   -1.5660 N   0  0  0  0  0  0  0  0  0  0  0  0
   -4.4900   15.7760   -0.8680 O   0  0  0  0  0  0  0  0  0  0  0  0
   -2.9710   14.7440    0.8570 O   0  0  0  0  0  0  0  0  0  0  0  0
   -1.0930   14.6480   -1.3300 C   0  0  0  0  0  0  0  0  0  0  0  0
   -0.2060   13.4150   -1.4340 C   0  0  0  0  0  0  0  0  0  0  0  0
    1.1970   13.7700   -1.9320 C   0  0  0  0  0  0  0  0  0  0  0  0
    1.7870   12.6620   -2.6230 O   0  0  0  0  0  0  0  0  0  0  0  0
    0.9470   11.9300   -3.4160 C   0  0  0  0  0  0  0  0  0  0  0  0
    0.4370   10.8800   -3.0580 O   0  0  0  0  0  0  0  0  0  0  0  0
    0.7710   12.6040   -4.7790 C   0  0  0  0  0  0  0  0  0  0  0  0
    0.6980   11.7250   -5.8990 O   0  0  0  0  0  0  0  0  0  0  0  0
   -0.3630   10.8690   -6.0390 C   0  0  0  0  0  0  0  0  0  0  0  0
   -0.3730    9.6900   -6.7910 C   0  0  0  0  0  0  0  0  0  0  0  0
   -1.5240   11.2410   -5.3540 C   0  0  0  0  0  0  0  0  0  0  0  0
   -1.5250    8.8990   -6.8520 C   0  0  0  0  0  0  0  0  0  0  0  0
   -2.6750   10.4510   -5.4150 C   0  0  0  0  0  0  0  0  0  0  0  0
   -2.6750    9.2790   -6.1650 C   0  0  0  0  0  0  0  0  0  0  0  0
  1  2  1  0
  2  3  2  0
  2  4  1  0
  4  5  2  0
  3  6  1  0
  6  7  1  0
  5  8  1  0
  5  9  1  0
  6  9  2  0
  8 10  1  0
  8 11  2  0
  8 12  2  0
 10 13  1  0
 13 14  1  0
 14 15  1  0
 15 16  1  0
 16 17  1  0
 17 18  2  0
 17 19  1  0
 19 20  1  0
 20 21  1  0
 21 22  2  0
 21 23  1  0
 22 24  1  0
 23 25  2  0
 24 26  2  0
 25 26  1  0
M  END
