mac-x0328-mac-x0357
     RDKit          3D

 20 21  0  0  0  0  0  0  0  0999 V2000
   -1.7600   15.1430   -3.6770 O   0  0  0  0  0  0  0  0  0  0  0  0
   -1.9810   14.5210   -2.5020 C   0  0  0  0  0  0  0  0  0  0  0  0
   -1.1550   13.7410   -1.9080 N   0  0  0  0  0  0  0  0  0  0  0  0
   -3.3220   14.7880   -1.9380 C   0  0  0  0  0  0  0  0  0  0  0  0
    0.1500   13.4130   -2.4680 C   0  0  1  0  0  0  0  0  0  0  0  0
   -3.5430   14.8640   -0.5530 C   0  0  0  0  0  0  0  0  0  0  0  0
   -4.4010   14.9550   -2.8140 C   0  0  0  0  0  0  0  0  0  0  0  0
    0.9210   12.6690   -1.5250 O   0  0  0  0  0  0  0  0  0  0  0  0
   -4.8300   15.0950   -0.0550 C   0  0  0  0  0  0  0  0  0  0  0  0
   -5.6810   15.1840   -2.3160 C   0  0  0  0  0  0  0  0  0  0  0  0
    0.0170   12.6790   -3.8200 C   0  0  0  0  0  0  0  0  0  0  0  0
   -5.8860   15.2480   -0.9480 C   0  0  0  0  0  0  0  0  0  0  0  0
    1.0880   12.6100   -4.7630 C   0  0  0  0  0  0  0  0  0  0  0  0
   -1.2010   12.0430   -4.1660 C   0  0  0  0  0  0  0  0  0  0  0  0
   -7.1650   15.4650   -0.5300 O   0  0  0  0  0  0  0  0  0  0  0  0
    2.4270   13.2460   -4.4870 C   0  0  0  0  0  0  0  0  0  0  0  0
   -1.3710   11.3700   -5.3780 C   0  0  0  0  0  0  0  0  0  0  0  0
    0.8800   11.9250   -5.9750 C   0  0  0  0  0  0  0  0  0  0  0  0
    1.8450   11.8100   -6.9200 O   0  0  0  0  0  0  0  0  0  0  0  0
   -0.3240   11.3150   -6.2840 C   0  0  0  0  0  0  0  0  0  0  0  0
  1  2  1  0
  2  3  2  3
  2  4  1  0
  3  5  1  0
  4  6  2  0
  4  7  1  0
  5  8  1  1
  6  9  1  0
  7 10  2  0
  5 11  1  0
  9 12  2  0
 10 12  1  0
 11 13  2  0
 11 14  1  0
 12 15  1  0
 13 16  1  0
 14 17  2  0
 13 18  1  0
 18 19  1  0
 17 20  1  0
 18 20  2  0
M  END
