mac-x0527-mac-x0263
     RDKit          3D

 24 26  0  0  0  0  0  0  0  0999 V2000
   -3.5510   15.6350   -3.6790 O   0  0  0  0  0  0  0  0  0  0  0  0
   -3.0600   15.1520   -2.6690 C   0  0  0  0  0  0  0  0  0  0  0  0
   -1.7790   14.6640   -2.6140 N   0  0  0  0  0  0  0  0  0  0  0  0
   -3.8350   15.0300   -1.3710 C   0  0  0  0  0  0  0  0  0  0  0  0
   -0.9070   14.6840   -3.7730 C   0  0  0  0  0  0  0  0  0  0  0  0
   -5.1700   14.9650   -1.5150 C   0  0  0  0  0  0  0  0  0  0  0  0
   -3.1840   14.9820   -0.1280 N   0  0  0  0  0  0  0  0  0  0  0  0
   -0.8920   13.3470   -4.4890 C   0  0  0  0  0  0  0  0  0  0  0  0
   -5.9510   14.8130   -0.4000 N   0  0  0  0  0  0  0  0  0  0  0  0
   -3.9420   14.8610    0.9380 C   0  0  0  0  0  0  0  0  0  0  0  0
   -1.8330   12.3510   -4.1970 C   0  0  0  0  0  0  0  0  0  0  0  0
    0.0860   13.0910   -5.4690 C   0  0  0  0  0  0  0  0  0  0  0  0
   -5.3710   14.7550    0.8380 C   0  0  0  0  0  0  0  0  0  0  0  0
   -7.2930   14.6870   -0.2770 N   0  0  0  0  0  0  0  0  0  0  0  0
   -1.8000   11.1210   -4.8680 C   0  0  0  0  0  0  0  0  0  0  0  0
    0.1160   11.8640   -6.1350 C   0  0  0  0  0  0  0  0  0  0  0  0
   -7.4410   14.5520    1.0430 C   0  0  0  0  0  0  0  0  0  0  0  0
   -6.2770   14.5950    1.7670 N   0  0  0  0  0  0  0  0  0  0  0  0
   -8.7700   14.3660    1.6890 C   0  0  0  0  0  0  0  0  0  0  0  0
   -0.8230   10.8820   -5.8360 C   0  0  0  0  0  0  0  0  0  0  0  0
   -9.4370   15.6880    2.0380 C   0  0  0  0  0  0  0  0  0  0  0  0
  -10.7320   15.5040    2.7730 C   0  0  0  0  0  0  0  0  0  0  0  0
  -11.3910   14.3780    2.4410 O   0  0  0  0  0  0  0  0  0  0  0  0
  -11.1900   16.2710    3.6010 O   0  0  0  0  0  0  0  0  0  0  0  0
  1  2  2  0
  2  3  1  0
  2  4  1  0
  3  5  1  0
  4  6  2  0
  4  7  1  0
  5  8  1  0
  6  9  1  0
  7 10  2  0
  8 11  2  0
  8 12  1  0
  9 13  1  0
 10 13  1  0
  9 14  1  0
 11 15  1  0
 12 16  2  0
 14 17  2  0
 13 18  2  0
 17 18  1  0
 17 19  1  0
 15 20  2  0
 16 20  1  0
 19 21  1  0
 21 22  1  0
 22 23  1  0
 22 24  2  0
M  END
