mac-x0587-diamond-x0905_0_A
     RDKit          3D

 16 16  0  0  0  0  0  0  0  0999 V2000
    0.1840   16.0510   -4.0330 C   0  0  0  0  0  0  0  0  0  0  0  0
   -0.5740   14.7710   -3.6740 C   0  0  2  0  0  0  0  0  0  0  0  0
   -0.1980   13.4600   -4.9340 S   0  0  0  0  0  0  0  0  0  0  0  0
   -2.0940   15.0140   -3.5490 C   0  0  0  0  0  0  0  0  0  0  0  0
   -0.4820   11.8680   -4.0580 C   0  0  0  0  0  0  0  0  0  0  0  0
   -2.7360   15.3280   -4.5520 O   0  0  0  0  0  0  0  0  0  0  0  0
   -2.7340   14.8870   -2.3240 N   0  0  0  0  0  0  0  0  0  0  0  0
    0.4790   11.5090   -2.9470 C   0  0  0  0  0  0  0  0  0  0  0  0
   -4.1510   15.1170   -2.1090 C   0  0  0  0  0  0  0  0  0  0  0  0
   -2.1210   14.7340   -1.0640 C   0  0  0  0  0  0  0  0  0  0  0  0
    0.5430   10.3910   -2.4430 O   0  0  0  0  0  0  0  0  0  0  0  0
    1.2740   12.5120   -2.5260 O   0  0  0  0  0  0  0  0  0  0  0  0
   -0.9330   14.7330   -0.7760 O   0  0  0  0  0  0  0  0  0  0  0  0
   -4.3000   15.2810   -0.6050 C   0  0  2  0  0  0  0  0  0  0  0  0
   -3.1510   14.5920   -0.1260 N   0  0  0  0  0  0  0  0  0  0  0  0
   -5.5050   14.6710   -0.1610 O   0  0  0  0  0  0  0  0  0  0  0  0
  2  1  1  6
  2  3  1  0
  2  4  1  0
  3  5  1  0
  4  6  2  0
  4  7  1  0
  5  8  1  0
  7  9  1  0
  7 10  1  0
  8 11  2  0
  8 12  1  0
 10 13  2  0
  9 14  1  0
 10 15  1  0
 14 15  1  0
 14 16  1  1
M  END
