mac-x0588-mac-x0345
     RDKit          3D

 24 27  0  0  0  0  0  0  0  0999 V2000
   -4.3580   15.3260    1.0840 N   0  0  0  0  0  0  0  0  0  0  0  0
   -3.1020   15.6270    0.3960 C   0  0  1  0  0  0  0  0  0  0  0  0
   -2.1430   14.4140    0.3880 C   0  0  1  0  0  0  0  0  0  0  0  0
   -5.1570   15.1440    0.0050 C   0  0  0  0  0  0  0  0  0  0  0  0
   -3.2820   16.0860   -0.9850 N   0  0  0  0  0  0  0  0  0  0  0  0
   -6.5050   14.7710   -0.1130 C   0  0  0  0  0  0  0  0  0  0  0  0
   -4.4690   15.3770   -1.1520 C   0  0  0  0  0  0  0  0  0  0  0  0
   -7.3840   14.4860    1.0700 C   0  0  0  0  0  0  0  0  0  0  0  0
   -2.6740   15.3180   -2.0530 C   0  0  0  0  0  0  0  0  0  0  0  0
   -0.9870   14.5060   -0.6580 C   0  0  1  0  0  0  0  0  0  0  0  0
   -1.4350   14.3320    1.6760 N   0  0  0  0  0  0  0  0  0  0  0  0
   -5.0420   15.2510   -2.3690 C   0  0  0  0  0  0  0  0  0  0  0  0
   -7.0950   14.6420   -1.3390 N   0  0  0  0  0  0  0  0  0  0  0  0
   -1.2680   15.2550   -1.8560 N   0  0  0  0  0  0  0  0  0  0  0  0
    0.0660   15.0970    0.1270 N   0  0  0  0  0  0  0  0  0  0  0  0
   -0.0490   14.3050    1.3240 C   0  0  0  0  0  0  0  0  0  0  0  0
   -6.3360   14.8860   -2.4290 C   0  0  0  0  0  0  0  0  0  0  0  0
   -0.5740   14.8410   -3.0910 C   0  0  0  0  0  0  0  0  0  0  0  0
   -6.9040   14.7520   -3.6730 N   0  0  0  0  0  0  0  0  0  0  0  0
   -0.5500   15.8280   -4.2910 C   0  0  1  0  0  0  0  0  0  0  0  0
   -1.3510   17.0110   -4.1250 O   0  0  0  0  0  0  0  0  0  0  0  0
    0.8350   16.2940   -4.7240 C   0  0  0  0  0  0  0  0  0  0  0  0
    0.6290   17.7120   -5.2160 C   0  0  0  0  0  0  0  0  0  0  0  0
   -0.8710   17.9330   -5.1120 C   0  0  0  0  0  0  0  0  0  0  0  0
  2  1  1  6
  2  3  1  0
  1  4  1  0
  2  5  1  0
  4  6  2  0
  4  7  1  0
  6  8  1  0
  5  9  1  0
  3 10  1  0
  3 11  1  1
  7 12  2  0
  6 13  1  0
  9 14  1  0
 10 14  1  0
 10 15  1  1
 11 16  1  0
 15 16  1  0
 12 17  1  0
 13 17  2  0
 14 18  1  0
 17 19  1  0
 20 18  1  1
 20 21  1  0
 20 22  1  0
 22 23  1  0
 21 24  1  0
 23 24  1  0
M  END
