mac-x0321-diamond-x0681_0_A
     RDKit          3D

 21 23  0  0  0  0  0  0  0  0999 V2000
   -4.1800   16.1770    1.1790 Cl  0  0  0  0  0  0  0  0  0  0  0  0
   -4.5330   15.7360   -0.4350 C   0  0  0  0  0  0  0  0  0  0  0  0
   -3.4760   15.2600   -1.1360 C   0  0  0  0  0  0  0  0  0  0  0  0
   -5.7820   15.8170   -1.0520 C   0  0  0  0  0  0  0  0  0  0  0  0
   -3.5930   14.8410   -2.4450 C   0  0  0  0  0  0  0  0  0  0  0  0
   -5.9240   15.4120   -2.3750 C   0  0  0  0  0  0  0  0  0  0  0  0
   -2.3200   14.3020   -2.9930 C   0  0  0  0  0  0  0  0  0  0  0  0
   -4.8270   14.9210   -3.0820 C   0  0  0  0  0  0  0  0  0  0  0  0
   -1.3090   15.2820   -3.1090 O   0  0  0  0  0  0  0  0  0  0  0  0
   -2.4720   13.6930   -4.2640 O   0  0  0  0  0  0  0  0  0  0  0  0
   -2.1340   13.3630   -1.7410 C   0  0  1  0  0  0  0  0  0  0  0  0
   -0.8150   13.6030   -1.1210 N   0  0  0  0  0  0  0  0  0  0  0  0
   -3.2540   13.6670   -0.6630 C   0  0  1  0  0  0  0  0  0  0  0  0
   -4.4580   12.7710   -0.6310 C   0  0  0  0  0  0  0  0  0  0  0  0
   -2.7190   14.0750    0.7400 C   0  0  0  0  0  0  0  0  0  0  0  0
   -5.3470   12.8430    0.3940 N   0  0  0  0  0  0  0  0  0  0  0  0
   -3.7240   13.8860    1.8940 C   0  0  0  0  0  0  0  0  0  0  0  0
   -4.8360   11.8580   -1.5050 N   0  0  0  0  0  0  0  0  0  0  0  0
   -5.1970   13.7480    1.4930 C   0  0  0  0  0  0  0  0  0  0  0  0
   -6.3420   11.9510    0.1860 C   0  0  0  0  0  0  0  0  0  0  0  0
   -6.0120   11.3450   -1.0010 C   0  0  0  0  0  0  0  0  0  0  0  0
  1  2  1  0
  2  3  2  0
  2  4  1  0
  3  5  1  0
  4  6  2  0
  5  7  1  0
  5  8  2  0
  6  8  1  0
  7  9  1  0
  7 10  1  0
  7 11  1  0
 11 12  1  1
 11 13  1  0
 13 14  1  0
 13 15  1  1
 14 16  1  0
 15 17  1  0
 14 18  2  0
 16 19  1  0
 17 19  1  0
 16 20  1  0
 18 21  1  0
 20 21  2  0
M  END
