mac-x0357-diamond-x0864_0_A
     RDKit          3D

 13 13  0  0  0  0  0  0  0  0999 V2000
    2.3020   12.9910   -4.8570 C   0  0  0  0  0  0  0  0  0  0  0  0
    0.9920   12.2470   -4.9950 C   0  0  0  0  0  0  0  0  0  0  0  0
    0.6680   11.5720   -6.2060 C   0  0  0  0  0  0  0  0  0  0  0  0
    0.0570   12.1850   -3.9200 C   0  0  0  0  0  0  0  0  0  0  0  0
    1.5390   11.5760   -7.2560 O   0  0  0  0  0  0  0  0  0  0  0  0
    0.2400   12.7990   -2.5440 C   0  0  0  0  0  0  0  0  0  0  0  0
   -1.1450   11.4810   -4.1100 C   0  0  0  0  0  0  0  0  0  0  0  0
   -0.5470   10.8630   -6.3480 C   0  0  0  0  0  0  0  0  0  0  0  0
   -0.6070   13.8920   -2.3230 O   0  0  0  0  0  0  0  0  0  0  0  0
    1.5420   13.2050   -2.2540 O   0  0  0  0  0  0  0  0  0  0  0  0
    0.0050   11.7340   -1.6540 O   0  0  0  0  0  0  0  0  0  0  0  0
   -1.0900    9.8860   -7.8930 Br  0  0  0  0  0  0  0  0  0  0  0  0
   -1.4410   10.8370   -5.2960 C   0  0  0  0  0  0  0  0  0  0  0  0
  1  2  1  0
  2  3  2  0
  2  4  1  0
  3  5  1  0
  4  6  1  0
  4  7  2  0
  3  8  1  0
  6  9  1  0
  6 10  1  0
  6 11  1  0
  8 12  1  0
  7 13  1  0
  8 13  2  0
M  END
