mac-x0213-diamond-x0969_0_A
     RDKit          3D

 25 28  0  0  0  0  0  0  0  0999 V2000
    0.1920   11.5440   -2.8790 O   0  0  0  0  0  0  0  0  0  0  0  0
    0.3110   12.8840   -2.7700 C   0  0  0  0  0  0  0  0  0  0  0  0
    0.5410   13.4260   -1.6310 N   0  0  0  0  0  0  0  0  0  0  0  0
    0.1470   13.6520   -4.0710 C   0  0  0  0  0  0  0  0  0  0  0  0
    0.6620   14.8810   -1.5310 C   0  0  0  0  0  0  0  0  0  0  0  0
   -1.3120   14.0880   -4.3410 C   0  0  0  0  0  0  0  0  0  0  0  0
    1.0520   14.9080   -4.1380 C   0  0  0  0  0  0  0  0  0  0  0  0
   -0.5970   15.4890   -0.8990 C   0  0  0  0  0  0  0  0  0  0  0  0
   -1.1900   15.5270   -4.7410 C   0  0  0  0  0  0  0  0  0  0  0  0
    0.1260   15.9840   -4.6280 C   0  0  0  0  0  0  0  0  0  0  0  0
   -1.8690   15.5010   -1.7780 C   0  0  0  0  0  0  0  0  0  0  0  0
   -2.2030   16.3700   -5.1830 C   0  0  0  0  0  0  0  0  0  0  0  0
    0.4500   17.2920   -4.9530 C   0  0  0  0  0  0  0  0  0  0  0  0
   -1.8740   17.6860   -5.5140 C   0  0  0  0  0  0  0  0  0  0  0  0
   -0.5590   18.1410   -5.4000 C   0  0  0  0  0  0  0  0  0  0  0  0
   -3.1490   15.3370   -1.0110 C   0  0  0  0  0  0  0  0  0  0  0  0
   -4.3590   15.0930   -1.5850 C   0  0  0  0  0  0  0  0  0  0  0  0
   -3.0270   15.4420    0.4410 C   0  0  0  0  0  0  0  0  0  0  0  0
   -5.5070   14.9090   -0.7590 C   0  0  0  0  0  0  0  0  0  0  0  0
   -4.1020   15.2730    1.2100 C   0  0  0  0  0  0  0  0  0  0  0  0
   -6.7740   14.6490   -1.0140 N   0  0  0  0  0  0  0  0  0  0  0  0
   -5.3250   14.9980    0.6090 N   0  0  0  0  0  0  0  0  0  0  0  0
   -6.5710   14.7610    1.1580 C   0  0  0  0  0  0  0  0  0  0  0  0
   -7.4390   14.5550    0.1920 N   0  0  0  0  0  0  0  0  0  0  0  0
   -6.8010   14.7610    2.4890 N   0  0  0  0  0  0  0  0  0  0  0  0
  1  2  1  0
  2  3  2  3
  2  4  1  0
  3  5  1  0
  4  6  1  0
  4  7  1  0
  5  8  1  0
  6  9  1  0
  7 10  1  0
  9 10  2  0
  8 11  1  0
  9 12  1  0
 10 13  1  0
 12 14  2  0
 13 15  2  0
 14 15  1  0
 11 16  1  0
 16 17  2  0
 16 18  1  0
 17 19  1  0
 18 20  2  0
 19 21  2  0
 19 22  1  0
 20 22  1  0
 22 23  1  0
 21 24  1  0
 23 24  2  0
 23 25  1  0
M  END
