mac-x0188-mac-x0346
     RDKit          3D

 19 20  0  0  0  0  0  0  0  0999 V2000
    1.2270   13.2750   -5.1500 C   0  0  0  0  0  0  0  0  0  0  0  0
   -0.0490   13.6050   -4.4740 C   0  0  0  0  0  0  0  0  0  0  0  0
   -1.1640   13.5270   -5.2420 O   0  0  0  0  0  0  0  0  0  0  0  0
   -0.4010   13.9930   -3.1930 C   0  0  0  0  0  0  0  0  0  0  0  0
    0.5210   14.1950   -2.0860 C   0  0  0  0  0  0  0  0  0  0  0  0
   -2.2730   13.8540   -4.4900 N   0  0  0  0  0  0  0  0  0  0  0  0
   -1.8370   14.1400   -3.2460 C   0  0  0  0  0  0  0  0  0  0  0  0
    1.1320   15.2310   -1.9420 O   0  0  0  0  0  0  0  0  0  0  0  0
    0.7100   13.1710   -1.2090 O   0  0  0  0  0  0  0  0  0  0  0  0
   -2.7890   14.5300   -2.1810 C   0  0  0  0  0  0  0  0  0  0  0  0
   -4.1870   14.6330   -2.4080 C   0  0  0  0  0  0  0  0  0  0  0  0
   -2.3140   14.8000   -0.8940 C   0  0  0  0  0  0  0  0  0  0  0  0
   -5.0640   14.9950   -1.3500 C   0  0  0  0  0  0  0  0  0  0  0  0
   -3.1800   15.1670    0.1390 C   0  0  0  0  0  0  0  0  0  0  0  0
   -6.5500   15.0940   -1.5070 C   0  0  0  0  0  0  0  0  0  0  0  0
   -4.5440   15.2650   -0.0880 C   0  0  0  0  0  0  0  0  0  0  0  0
   -7.3640   15.1710   -0.3800 N   0  0  0  0  0  0  0  0  0  0  0  0
   -7.0460   15.0800   -2.6160 O   0  0  0  0  0  0  0  0  0  0  0  0
   -7.0740   14.2940    0.6970 O   0  0  0  0  0  0  0  0  0  0  0  0
  1  2  1  0
  2  3  1  0
  2  4  2  0
  4  5  1  0
  3  6  1  0
  4  7  1  0
  6  7  2  0
  5  8  2  0
  5  9  1  0
  7 10  1  0
 10 11  2  0
 10 12  1  0
 11 13  1  0
 12 14  2  0
 13 15  1  0
 13 16  2  0
 14 16  1  0
 15 17  1  0
 15 18  2  0
 17 19  1  0
M  END
