mac-x0224-mac-x0228
     RDKit          3D

 22 25  0  0  0  0  0  0  0  0999 V2000
   -4.1520   15.7680    1.6940 C   0  0  0  0  0  0  0  0  0  0  0  0
   -2.6340   14.8010    1.8460 S   0  0  0  0  0  0  0  0  0  0  0  0
   -2.2270   14.6410    0.1530 C   0  0  0  0  0  0  0  0  0  0  0  0
   -0.9450   14.3770   -0.3080 C   0  0  0  0  0  0  0  0  0  0  0  0
   -3.2790   14.7880   -0.7660 C   0  0  0  0  0  0  0  0  0  0  0  0
   -0.9220   14.2800   -1.6660 C   0  0  0  0  0  0  0  0  0  0  0  0
   -3.0860   14.6500   -2.1550 C   0  0  0  0  0  0  0  0  0  0  0  0
   -0.3650   14.1110   -2.7800 C   0  0  0  0  0  0  0  0  0  0  0  0
   -1.8240   14.3670   -2.6350 C   0  0  0  0  0  0  0  0  0  0  0  0
   -1.6180   14.2070   -4.1800 N   0  0  0  0  0  0  0  0  0  0  0  0
    0.2220   12.8380   -2.8860 O   0  0  0  0  0  0  0  0  0  0  0  0
    0.5410   15.1490   -3.0250 O   0  0  0  0  0  0  0  0  0  0  0  0
   -2.0830   14.3010   -3.1920 C   0  0  0  0  0  0  0  0  0  0  0  0
   -3.4240   14.3680   -2.5000 C   0  0  0  0  0  0  0  0  0  0  0  0
   -3.6680   13.5560   -1.3500 C   0  0  0  0  0  0  0  0  0  0  0  0
   -4.4440   15.2110   -2.9530 C   0  0  0  0  0  0  0  0  0  0  0  0
   -4.9070   13.6410   -0.7110 C   0  0  0  0  0  0  0  0  0  0  0  0
   -5.6930   15.2800   -2.2950 C   0  0  0  0  0  0  0  0  0  0  0  0
   -5.8930   14.4920   -1.1850 C   0  0  0  0  0  0  0  0  0  0  0  0
   -5.4100   12.9310    0.4870 C   0  0  0  0  0  0  0  0  0  0  0  0
   -7.0520   14.4640   -0.4460 O   0  0  0  0  0  0  0  0  0  0  0  0
   -6.6590   13.7720    0.7680 C   0  0  0  0  0  0  0  0  0  0  0  0
  1  2  1  0
  2  3  1  0
  3  4  2  0
  3  5  1  0
  4  6  1  0
  5  7  2  0
  6  8  1  0
  6  9  2  0
  7  9  1  0
  9 10  1  0
  8 11  1  0
  8 12  1  0
  8 13  1  0
 10 13  2  0
 13 14  1  0
 14 15  2  0
 14 16  1  0
 15 17  1  0
 16 18  2  0
 17 19  2  0
 18 19  1  0
 17 20  1  0
 19 21  1  0
 20 22  1  0
 21 22  1  0
M  END
