mac-x0213-mac-x0588
     RDKit          3D

 23 26  0  0  0  0  0  0  0  0999 V2000
    0.3610   11.2460   -3.0550 O   0  0  0  0  0  0  0  0  0  0  0  0
    0.9700   12.4480   -3.1410 C   0  0  0  0  0  0  0  0  0  0  0  0
    1.8600   12.7300   -2.3680 O   0  0  0  0  0  0  0  0  0  0  0  0
    0.3750   13.3040   -4.2260 C   0  0  1  0  0  0  0  0  0  0  0  0
   -0.7050   14.0760   -3.5220 C   0  0  0  0  0  0  0  0  0  0  0  0
    1.3230   14.3360   -4.8820 C   0  0  0  0  0  0  0  0  0  0  0  0
   -0.6040   15.4290   -4.1040 C   0  0  0  0  0  0  0  0  0  0  0  0
    0.5060   15.6040   -4.8870 C   0  0  0  0  0  0  0  0  0  0  0  0
   -1.4980   16.3990   -3.8950 C   0  0  0  0  0  0  0  0  0  0  0  0
    0.7380   16.8140   -5.5300 C   0  0  0  0  0  0  0  0  0  0  0  0
   -2.6020   16.0210   -2.9530 C   0  0  0  0  0  0  0  0  0  0  0  0
   -1.3100   17.6420   -4.5470 C   0  0  0  0  0  0  0  0  0  0  0  0
   -0.1910   17.8430   -5.3640 C   0  0  0  0  0  0  0  0  0  0  0  0
   -2.4670   14.7240   -2.2780 N   0  0  0  0  0  0  0  0  0  0  0  0
   -3.8010   14.2010   -2.0770 C   0  0  0  0  0  0  0  0  0  0  0  0
   -1.7240   14.6530   -0.9960 C   0  0  2  0  0  0  0  0  0  0  0  0
   -4.5020   14.8670   -0.9760 N   0  0  0  0  0  0  0  0  0  0  0  0
   -2.3740   15.3140    0.1820 C   0  0  1  0  0  0  0  0  0  0  0  0
   -0.4250   15.3110   -0.8780 N   0  0  0  0  0  0  0  0  0  0  0  0
   -3.7950   14.7560    0.2800 C   0  0  1  0  0  0  0  0  0  0  0  0
   -1.3930   15.1340    1.2650 N   0  0  0  0  0  0  0  0  0  0  0  0
   -0.1280   15.0180    0.5360 C   0  0  0  0  0  0  0  0  0  0  0  0
   -4.6300   15.4050    1.2790 N   0  0  0  0  0  0  0  0  0  0  0  0
  1  2  1  0
  2  3  2  0
  4  2  1  1
  4  5  1  0
  4  6  1  0
  5  7  1  0
  6  8  1  0
  7  8  2  0
  7  9  1  0
  8 10  1  0
  9 11  1  0
  9 12  2  0
 10 13  2  0
 12 13  1  0
 11 14  1  0
 14 15  1  0
 14 16  1  0
 15 17  1  0
 16 18  1  0
 16 19  1  6
 17 20  1  0
 18 20  1  0
 18 21  1  1
 19 22  1  0
 21 22  1  0
 20 23  1  1
M  END
