mac-x0439-mac-x0385
     RDKit          3D

 24 26  0  0  0  0  0  0  0  0999 V2000
   -3.1390   15.6820   -5.4530 Cl  0  0  0  0  0  0  0  0  0  0  0  0
   -1.7700   16.7140   -5.3060 C   0  0  0  0  0  0  0  0  0  0  0  0
   -0.8600   16.5480   -4.1380 C   0  0  1  0  0  0  0  0  0  0  0  0
   -1.5170   17.6770   -6.2100 C   0  0  0  0  0  0  0  0  0  0  0  0
   -0.4580   15.2840   -3.4490 C   0  0  0  0  0  0  0  0  0  0  0  0
    0.5320   16.9970   -4.5060 C   0  0  0  0  0  0  0  0  0  0  0  0
   -0.3430   18.5320   -6.1000 C   0  0  0  0  0  0  0  0  0  0  0  0
    0.8870   15.2240   -3.4130 C   0  0  0  0  0  0  0  0  0  0  0  0
    1.4920   16.2490   -4.0760 N   0  0  0  0  0  0  0  0  0  0  0  0
    0.6900   18.2340   -5.2890 C   0  0  0  0  0  0  0  0  0  0  0  0
    1.6840   14.1640   -2.7240 C   0  0  0  0  0  0  0  0  0  0  0  0
    2.9890   14.2650   -3.0330 O   0  0  0  0  0  0  0  0  0  0  0  0
    1.3940   13.2410   -1.9040 N   0  0  0  0  0  0  0  0  0  0  0  0
    0.0390   13.0640   -1.4300 C   0  0  0  0  0  0  0  0  0  0  0  0
   -0.0020   13.5080    0.0410 C   0  0  0  0  0  0  0  0  0  0  0  0
   -0.0030   14.9890    0.2820 C   0  0  0  0  0  0  0  0  0  0  0  0
   -1.4210   15.2470    0.0820 C   0  0  0  0  0  0  0  0  0  0  0  0
   -2.2170   15.3960    1.1420 N   0  0  0  0  0  0  0  0  0  0  0  0
   -1.7890   15.2720   -1.1900 N   0  0  0  0  0  0  0  0  0  0  0  0
   -3.5060   15.5710    0.8670 C   0  0  0  0  0  0  0  0  0  0  0  0
   -3.0750   15.4440   -1.4210 C   0  0  0  0  0  0  0  0  0  0  0  0
   -4.3420   15.7330    1.9720 N   0  0  0  0  0  0  0  0  0  0  0  0
   -3.9980   15.5940   -0.4260 C   0  0  0  0  0  0  0  0  0  0  0  0
   -5.4260   15.7700   -0.7690 C   0  0  0  0  0  0  0  0  0  0  0  0
  1  2  1  0
  2  3  1  0
  2  4  2  0
  3  5  1  6
  3  6  1  0
  4  7  1  0
  5  8  2  0
  6  9  2  0
  8  9  1  0
  6 10  1  0
  7 10  2  0
  8 11  1  0
 11 12  1  0
 11 13  2  3
 13 14  1  0
 14 15  1  0
 15 16  1  0
 16 17  1  0
 17 18  2  0
 17 19  1  0
 18 20  1  0
 19 21  2  0
 20 22  1  0
 20 23  2  0
 21 23  1  0
 23 24  1  0
M  END
