mac-x0394-mac-x0437
     RDKit          3D

 22 24  0  0  0  0  0  0  0  0999 V2000
    1.0220   18.4300   -5.2620 Cl  0  0  0  0  0  0  0  0  0  0  0  0
    0.2130   16.9590   -5.0380 C   0  0  0  0  0  0  0  0  0  0  0  0
   -1.1620   16.9050   -5.2060 C   0  0  0  0  0  0  0  0  0  0  0  0
    0.9450   15.8350   -4.7040 C   0  0  0  0  0  0  0  0  0  0  0  0
    0.3050   14.6250   -4.5350 C   0  0  0  0  0  0  0  0  0  0  0  0
   -1.8000   15.6920   -5.0370 C   0  0  0  0  0  0  0  0  0  0  0  0
   -3.4920   15.5510   -5.2480 Cl  0  0  0  0  0  0  0  0  0  0  0  0
    1.0490   13.3720   -4.2020 C   0  0  1  0  0  0  0  0  0  0  0  0
   -1.0800   14.5590   -4.7030 C   0  0  0  0  0  0  0  0  0  0  0  0
    0.7230   12.6240   -2.9170 C   0  0  0  0  0  0  0  0  0  0  0  0
    0.9810   12.5490   -5.4790 C   0  0  0  0  0  0  0  0  0  0  0  0
    0.1570   11.4140   -3.0600 O   0  0  0  0  0  0  0  0  0  0  0  0
    0.9330   13.0450   -1.7920 O   0  0  0  0  0  0  0  0  0  0  0  0
   -0.1170   11.6250   -5.6570 N   0  0  0  0  0  0  0  0  0  0  0  0
   -1.2680   11.5050   -4.9160 C   0  0  0  0  0  0  0  0  0  0  0  0
   -0.1490   10.7050   -6.6390 C   0  0  0  0  0  0  0  0  0  0  0  0
   -2.0370   10.5380   -5.3790 N   0  0  0  0  0  0  0  0  0  0  0  0
   -1.3450   10.0290   -6.4510 C   0  0  0  0  0  0  0  0  0  0  0  0
    0.7480   10.4070   -7.6570 C   0  0  0  0  0  0  0  0  0  0  0  0
   -1.6710    8.9850   -7.3200 C   0  0  0  0  0  0  0  0  0  0  0  0
    0.4160    9.3700   -8.5160 C   0  0  0  0  0  0  0  0  0  0  0  0
   -0.7760    8.6620   -8.3530 C   0  0  0  0  0  0  0  0  0  0  0  0
  1  2  1  0
  2  3  2  0
  2  4  1  0
  4  5  2  0
  3  6  1  0
  6  7  1  0
  5  8  1  0
  5  9  1  0
  6  9  2  0
  8 10  1  0
  8 11  1  6
 10 12  1  0
 10 13  2  0
 11 14  1  0
 14 15  1  0
 14 16  1  0
 15 17  2  0
 16 18  2  0
 17 18  1  0
 16 19  1  0
 18 20  1  0
 19 21  2  0
 20 22  2  0
 21 22  1  0
M  END
