mac-x0380-mac-x0161
     RDKit          3D

 25 28  0  0  0  0  0  0  0  0999 V2000
   -1.2300   14.5720   -2.6920 O   0  0  0  0  0  0  0  0  0  0  0  0
   -2.4950   15.0110   -2.9030 C   0  0  0  0  0  0  0  0  0  0  0  0
   -3.0040   15.2230   -3.9980 O   0  0  0  0  0  0  0  0  0  0  0  0
   -0.9140   13.3960   -3.2180 C   0  0  0  0  0  0  0  0  0  0  0  0
   -3.2710   15.2300   -1.5970 C   0  0  1  0  0  0  0  0  0  0  0  0
   -1.3250   12.7110   -4.3450 C   0  0  0  0  0  0  0  0  0  0  0  0
    0.0080   12.6490   -2.5490 O   0  0  0  0  0  0  0  0  0  0  0  0
   -4.5890   14.4590   -1.7080 C   0  0  0  0  0  0  0  0  0  0  0  0
   -2.4920   15.0750   -0.2320 C   0  0  1  0  0  0  0  0  0  0  0  0
    0.2100   11.4550   -3.2300 N   0  0  0  0  0  0  0  0  0  0  0  0
   -0.5870   11.5110   -4.2870 C   0  0  0  0  0  0  0  0  0  0  0  0
   -0.6430   10.4930   -5.1760 O   0  0  0  0  0  0  0  0  0  0  0  0
   -5.3720   14.3460   -0.4080 C   0  0  1  0  0  0  0  0  0  0  0  0
   -3.4350   15.3660    0.9740 C   0  0  0  0  0  0  0  0  0  0  0  0
   -1.8980   13.7440    0.0850 N   0  0  0  0  0  0  0  0  0  0  0  0
   -1.1940   15.9190   -0.2360 C   0  0  0  0  0  0  0  0  0  0  0  0
   -1.8280   10.4470   -5.9610 C   0  0  0  0  0  0  0  0  0  0  0  0
   -4.9470   15.3260    0.6750 C   0  0  2  0  0  0  0  0  0  0  0  0
   -7.1320   14.6770   -0.7530 S   0  0  0  0  0  0  0  0  0  0  0  0
   -0.0990   14.9910   -0.0420 N   0  0  0  0  0  0  0  0  0  0  0  0
   -0.6890   14.0630    0.8480 C   0  0  0  0  0  0  0  0  0  0  0  0
   -5.7180   15.0900    1.9180 N   0  0  0  0  0  0  0  0  0  0  0  0
   -7.7130   14.0300    0.8260 C   0  0  0  0  0  0  0  0  0  0  0  0
   -7.0360   14.6810    2.0110 C   0  0  0  0  0  0  0  0  0  0  0  0
   -7.6520   14.8740    3.0680 O   0  0  0  0  0  0  0  0  0  0  0  0
  1  2  1  0
  2  3  2  0
  1  4  1  0
  5  2  1  6
  4  6  2  0
  4  7  1  0
  5  8  1  0
  5  9  1  0
  7 10  1  0
  6 11  1  0
 10 11  2  0
 11 12  1  0
 13  8  1  6
  9 14  1  1
  9 15  1  0
  9 16  1  0
 12 17  1  0
 13 18  1  0
 18 14  1  1
 13 19  1  0
 16 20  1  0
 15 21  1  0
 20 21  1  0
 18 22  1  0
 19 23  1  0
 22 24  1  0
 23 24  1  0
 24 25  2  0
M  END
