mac-x0576-mac-x0567
     RDKit          3D

 13 14  0  0  0  0  0  0  0  0999 V2000
   -0.0450   13.8720    1.4890 N   0  0  0  0  0  0  0  0  0  0  0  0
   -0.5930   14.9230    0.7280 C   0  0  2  0  0  0  0  0  0  0  0  0
   -1.8970   15.1520    1.2630 N   0  0  0  0  0  0  0  0  0  0  0  0
   -0.6170   14.4330   -0.5870 N   0  0  0  0  0  0  0  0  0  0  0  0
   -1.6530   14.6550   -1.4470 C   0  0  0  0  0  0  0  0  0  0  0  0
   -2.9860   14.4250    0.6690 C   0  0  2  0  0  0  0  0  0  0  0  0
   -1.4200   14.9570   -2.6120 O   0  0  0  0  0  0  0  0  0  0  0  0
   -3.0510   14.5050   -0.8610 C   0  0  1  0  0  0  0  0  0  0  0  0
   -4.1830   14.8510    1.3390 N   0  0  0  0  0  0  0  0  0  0  0  0
   -5.3670   15.0080    0.6630 C   0  0  0  0  0  0  0  0  0  0  0  0
   -3.9620   15.5630   -1.3490 N   0  0  0  0  0  0  0  0  0  0  0  0
   -6.4270   14.8160    1.2520 O   0  0  0  0  0  0  0  0  0  0  0  0
   -5.3240   15.4220   -0.8110 C   0  0  0  0  0  0  0  0  0  0  0  0
  2  1  1  1
  2  3  1  0
  2  4  1  0
  4  5  1  0
  6  3  1  1
  5  7  2  0
  5  8  1  0
  6  8  1  0
  6  9  1  0
  9 10  1  0
  8 11  1  1
 10 12  2  0
 10 13  1  0
 11 13  1  0
M  END
