mac-x0472-diamond-x0962_0_A
     RDKit          3D

 15 16  0  0  0  0  0  0  0  0999 V2000
   -4.3830   15.4490   -2.3230 O   0  0  0  0  0  0  0  0  0  0  0  0
   -3.4100   14.4450   -2.6890 S   0  0  0  0  0  0  0  0  0  0  0  0
   -2.8510   14.3950   -4.0190 O   0  0  0  0  0  0  0  0  0  0  0  0
   -2.1760   14.5030   -1.5340 N   0  0  0  0  0  0  0  0  0  0  0  0
   -4.1200   12.8430   -2.3570 C   0  0  0  0  0  0  0  0  0  0  0  0
   -2.7080   14.7730   -0.2140 C   0  0  0  0  0  0  0  0  0  0  0  0
   -3.4320   11.6840   -2.7290 C   0  0  0  0  0  0  0  0  0  0  0  0
   -5.3720   12.7590   -1.7260 C   0  0  0  0  0  0  0  0  0  0  0  0
   -2.0080   14.4450    0.8410 N   0  0  0  0  0  0  0  0  0  0  0  0
   -4.2160   15.5070    0.0980 S   0  0  0  0  0  0  0  0  0  0  0  0
   -4.0000   10.4360   -2.4760 C   0  0  0  0  0  0  0  0  0  0  0  0
   -5.9290   11.5050   -1.4770 C   0  0  0  0  0  0  0  0  0  0  0  0
   -3.8390   15.3380    1.7530 C   0  0  0  0  0  0  0  0  0  0  0  0
   -2.6730   14.7760    1.9920 N   0  0  0  0  0  0  0  0  0  0  0  0
   -5.2470   10.3520   -1.8540 C   0  0  0  0  0  0  0  0  0  0  0  0
  1  2  2  0
  2  3  2  0
  2  4  1  0
  2  5  1  0
  4  6  1  0
  5  7  2  0
  5  8  1  0
  6  9  2  0
  6 10  1  0
  7 11  1  0
  8 12  2  0
 10 13  1  0
  9 14  1  0
 13 14  2  0
 11 15  2  0
 12 15  1  0
M  END
