mac-x0387-mac-x0398
     RDKit          3D

 21 23  0  0  0  0  0  0  0  0999 V2000
   -3.5010   14.9100    1.6980 N   0  0  0  0  0  0  0  0  0  0  0  0
   -2.2280   14.8250    1.1350 C   0  0  0  0  0  0  0  0  0  0  0  0
   -1.2530   14.6660    1.9700 N   0  0  0  0  0  0  0  0  0  0  0  0
   -2.0220   14.9080   -0.2440 C   0  0  0  0  0  0  0  0  0  0  0  0
   -0.7350   14.8480   -0.7930 C   0  0  0  0  0  0  0  0  0  0  0  0
   -0.0370   14.6080    1.4500 C   0  0  0  0  0  0  0  0  0  0  0  0
   -3.0440   15.0430   -1.1120 C   0  0  0  0  0  0  0  0  0  0  0  0
    0.2900   14.6970    0.1000 C   0  0  0  0  0  0  0  0  0  0  0  0
   -0.5260   14.9350   -2.2000 C   0  0  0  0  0  0  0  0  0  0  0  0
   -2.8640   15.1160   -2.4590 C   0  0  0  0  0  0  0  0  0  0  0  0
   -1.6200   15.0740   -3.0680 C   0  0  0  0  0  0  0  0  0  0  0  0
   -4.1480   15.2130   -2.9990 C   0  0  0  0  0  0  0  0  0  0  0  0
   -4.4480   15.3190   -4.1750 O   0  0  0  0  0  0  0  0  0  0  0  0
   -5.0020   15.0980   -1.8050 C   0  0  0  0  0  0  0  0  0  0  0  0
   -6.3600   14.9320   -1.7140 C   0  0  0  0  0  0  0  0  0  0  0  0
   -4.2430   15.1590   -0.6180 C   0  0  0  0  0  0  0  0  0  0  0  0
   -7.1180   14.8720   -2.8500 O   0  0  0  0  0  0  0  0  0  0  0  0
   -6.9540   14.8110   -0.4380 C   0  0  0  0  0  0  0  0  0  0  0  0
   -4.8290   15.0390    0.6320 C   0  0  0  0  0  0  0  0  0  0  0  0
   -6.1820   14.8580    0.7420 C   0  0  0  0  0  0  0  0  0  0  0  0
   -6.7380   14.7320    2.0260 N   0  0  0  0  0  0  0  0  0  0  0  0
  1  2  1  0
  2  3  2  0
  2  4  1  0
  4  5  2  0
  3  6  1  0
  4  7  1  0
  5  8  1  0
  6  8  2  0
  5  9  1  0
  7 10  2  0
  9 11  2  0
 10 11  1  0
 10 12  1  0
 12 13  2  0
 12 14  1  0
 14 15  2  0
 14 16  1  0
 15 17  1  0
 15 18  1  0
 16 19  2  0
 18 20  2  0
 19 20  1  0
 20 21  1  0
M  END
