mac-x0282-diamond-x0574_0_A
     RDKit          3D

 12 13  0  0  0  0  0  0  0  0999 V2000
    0.2430   14.1150    2.2610 N   0  0  0  0  0  0  0  0  0  0  0  0
   -0.6650   14.3620    1.2810 C   0  0  0  0  0  0  0  0  0  0  0  0
   -0.3360   14.5070   -0.0680 C   0  0  0  0  0  0  0  0  0  0  0  0
   -1.8540   14.4380    1.7970 N   0  0  0  0  0  0  0  0  0  0  0  0
   -2.7960   14.6590    0.9160 C   0  0  0  0  0  0  0  0  0  0  0  0
   -1.3730   14.7510   -0.9830 C   0  0  0  0  0  0  0  0  0  0  0  0
   -2.6800   14.8290   -0.4490 C   0  0  0  0  0  0  0  0  0  0  0  0
   -4.0860   14.7460    1.2710 N   0  0  0  0  0  0  0  0  0  0  0  0
   -4.8640   14.9750    0.1890 C   0  0  0  0  0  0  0  0  0  0  0  0
   -4.0120   15.0420   -0.9190 C   0  0  0  0  0  0  0  0  0  0  0  0
   -6.1790   15.0670    0.4390 O   0  0  0  0  0  0  0  0  0  0  0  0
   -6.5820   14.5930    1.7350 C   0  0  0  0  0  0  0  0  0  0  0  0
  1  2  1  0
  2  3  2  0
  2  4  1  0
  4  5  2  0
  3  6  1  0
  5  7  1  0
  6  7  2  0
  5  8  1  0
  8  9  1  0
  7 10  1  0
  9 10  2  0
  9 11  1  0
 11 12  1  0
M  END
