mac-x0282-mac-x0396
     RDKit          3D

 18 20  0  0  0  0  0  0  0  0999 V2000
   -2.9990   13.8050    1.5460 N   0  0  0  0  0  0  0  0  0  0  0  0
   -3.6480   13.7930    0.2730 C   0  0  0  0  0  0  0  0  0  0  0  0
   -3.0510   13.5560   -0.7760 O   0  0  0  0  0  0  0  0  0  0  0  0
   -2.0260   14.8020    1.5510 N   0  0  0  0  0  0  0  0  0  0  0  0
   -2.7310   15.3740    0.5740 C   0  0  0  0  0  0  0  0  0  0  0  0
   -0.6620   14.5690    1.2940 C   0  0  0  0  0  0  0  0  0  0  0  0
   -5.1210   14.1090    0.1180 C   0  0  0  0  0  0  0  0  0  0  0  0
   -2.2310   15.4570   -0.8130 C   0  0  0  0  0  0  0  0  0  0  0  0
   -3.9460   15.8090    0.6870 N   0  0  0  0  0  0  0  0  0  0  0  0
   -0.1190   14.7310    0.0610 C   0  0  0  0  0  0  0  0  0  0  0  0
   -5.7400   14.1330   -1.1360 C   0  0  0  0  0  0  0  0  0  0  0  0
   -5.9440   14.3910    1.2000 C   0  0  0  0  0  0  0  0  0  0  0  0
   -4.3110   16.0750   -0.6100 C   0  0  0  0  0  0  0  0  0  0  0  0
   -3.3620   15.8760   -1.5400 C   0  0  0  0  0  0  0  0  0  0  0  0
   -0.9610   15.1500   -1.0540 C   0  0  0  0  0  0  0  0  0  0  0  0
   -7.0580   14.4020   -1.3410 N   0  0  0  0  0  0  0  0  0  0  0  0
   -7.2960   14.6640    1.0280 C   0  0  0  0  0  0  0  0  0  0  0  0
   -7.8050   14.6590   -0.2540 C   0  0  0  0  0  0  0  0  0  0  0  0
  1  2  1  0
  2  3  2  0
  1  4  1  0
  4  5  1  0
  4  6  1  0
  2  7  1  0
  5  8  1  0
  5  9  2  0
  6 10  2  0
  7 11  2  0
  7 12  1  0
  9 13  1  0
  8 14  1  0
 13 14  2  0
  8 15  2  0
 10 15  1  0
 11 16  1  0
 12 17  2  0
 16 18  2  0
 17 18  1  0
M  END
