mac-x0584-mac-x0555
     RDKit          3D

 24 28  0  0  0  0  0  0  0  0999 V2000
   -7.5880   14.9610    2.4810 N   0  0  0  0  0  0  0  0  0  0  0  0
   -6.7970   14.3280    1.4190 C   0  0  1  0  0  0  0  0  0  0  0  0
   -7.6340   13.8220    0.2460 C   0  0  0  0  0  0  0  0  0  0  0  0
   -5.7070   15.2020    0.7580 C   0  0  0  0  0  0  0  0  0  0  0  0
   -4.6190   14.3490    0.2090 C   0  0  2  0  0  0  0  0  0  0  0  0
   -6.7200   13.3770   -0.7950 N   0  0  0  0  0  0  0  0  0  0  0  0
   -3.6700   14.3200    1.3260 N   0  0  0  0  0  0  0  0  0  0  0  0
   -3.8610   14.8390   -1.0540 C   0  0  0  0  0  0  0  0  0  0  0  0
   -5.3880   13.0740   -0.1920 C   0  0  0  0  0  0  0  0  0  0  0  0
   -2.4120   14.5190    0.7770 C   0  0  0  0  0  0  0  0  0  0  0  0
   -2.4520   14.7610   -0.5840 C   0  0  0  0  0  0  0  0  0  0  0  0
   -1.3260   14.4560    1.5030 N   0  0  0  0  0  0  0  0  0  0  0  0
   -1.2620   14.8950   -1.2590 C   0  0  0  0  0  0  0  0  0  0  0  0
   -1.2170   15.1240   -2.6460 N   0  0  0  0  0  0  0  0  0  0  0  0
   -0.1250   14.8190   -0.5520 N   0  0  0  0  0  0  0  0  0  0  0  0
   -0.2340   14.6220    0.7800 C   0  0  0  0  0  0  0  0  0  0  0  0
   -0.0410   14.7330   -3.4280 C   0  0  1  0  0  0  0  0  0  0  0  0
   -2.4370   14.9410   -3.4340 C   0  0  0  0  0  0  0  0  0  0  0  0
    0.3090   13.2780   -3.1260 C   0  0  0  0  0  0  0  0  0  0  0  0
   -0.5020   14.8970   -4.8960 C   0  0  0  0  0  0  0  0  0  0  0  0
   -1.9820   15.2840   -4.8480 C   0  0  0  0  0  0  0  0  0  0  0  0
    1.2840   12.5150   -4.0640 C   0  0  0  0  0  0  0  0  0  0  0  0
   -0.7750   12.2610   -3.5790 C   0  0  0  0  0  0  0  0  0  0  0  0
    0.3640   11.2890   -3.8640 C   0  0  0  0  0  0  0  0  0  0  0  0
  2  1  1  1
  2  3  1  0
  2  4  1  0
  5  4  1  1
  3  6  1  0
  5  7  1  0
  5  8  1  0
  5  9  1  0
  6  9  1  0
  7 10  1  0
  8 11  1  0
 10 11  2  0
 10 12  1  0
 11 13  1  0
 13 14  1  0
 13 15  2  0
 12 16  2  0
 15 16  1  0
 14 17  1  0
 14 18  1  0
 17 19  1  6
 17 20  1  0
 18 21  1  0
 20 21  1  0
 19 22  1  0
 19 23  1  0
 22 24  1  0
 23 24  1  0
M  END
