mac-x0365-diamond-x0438_0_A
     RDKit          3D

 19 20  0  0  0  0  0  0  0  0999 V2000
   -0.9960   14.7730   -1.0360 O   0  0  0  0  0  0  0  0  0  0  0  0
   -1.9420   14.7550   -1.9940 C   0  0  0  0  0  0  0  0  0  0  0  0
   -1.6890   14.7710   -3.1880 O   0  0  0  0  0  0  0  0  0  0  0  0
   -3.3360   14.7050   -1.4720 C   0  0  0  0  0  0  0  0  0  0  0  0
   -4.3940   14.5480   -2.4600 C   0  0  0  0  0  0  0  0  0  0  0  0
   -3.6040   14.7950   -0.1350 C   0  0  0  0  0  0  0  0  0  0  0  0
   -5.6720   14.8190   -2.1600 C   0  0  0  0  0  0  0  0  0  0  0  0
   -5.0620   14.7060    0.1710 C   0  0  0  0  0  0  0  0  0  0  0  0
   -6.6200   14.6600   -3.0970 F   0  0  0  0  0  0  0  0  0  0  0  0
   -6.0400   15.2960   -0.8140 C   0  0  1  0  0  0  0  0  0  0  0  0
   -5.6920   14.1820    1.1860 N   0  0  0  0  0  0  0  0  0  0  0  0
   -5.8770   16.6620   -0.8150 O   0  0  0  0  0  0  0  0  0  0  0  0
   -7.3330   14.9320   -0.2350 N   0  0  0  0  0  0  0  0  0  0  0  0
   -7.0430   14.3490    0.8860 C   0  0  0  0  0  0  0  0  0  0  0  0
   -8.0950   13.8360    1.8210 C   0  0  0  0  0  0  0  0  0  0  0  0
   -9.1070   15.1290    2.5210 S   0  0  0  0  0  0  0  0  0  0  0  0
   -8.2150   15.6480    3.9730 C   0  0  0  0  0  0  0  0  0  0  0  0
  -10.3310   14.5090    3.0010 O   0  0  0  0  0  0  0  0  0  0  0  0
   -9.2080   16.2520    1.6110 O   0  0  0  0  0  0  0  0  0  0  0  0
  1  2  1  0
  2  3  2  0
  2  4  1  0
  4  5  1  0
  4  6  2  0
  5  7  2  0
  6  8  1  0
  7  9  1  0
  7 10  1  0
  8 10  1  0
  8 11  2  0
 10 12  1  6
 10 13  1  0
 11 14  1  0
 13 14  2  0
 14 15  1  0
 16 15  1  0
 16 17  1  0
 16 18  2  0
 16 19  2  0
M  END
