mac-x0472-diamond-x0855_0_A
     RDKit          3D

 27 29  0  0  0  0  0  0  0  0999 V2000
   -4.3670   15.4350   -2.5110 O   0  0  0  0  0  0  0  0  0  0  0  0
   -3.3520   14.4120   -2.6300 S   0  0  1  0  0  0  0  0  0  0  0  0
   -2.3700   14.2790   -3.8040 N   0  0  0  0  0  0  0  0  0  0  0  0
   -2.2720   14.7310   -1.3950 N   0  0  0  0  0  0  0  0  0  0  0  0
   -4.1040   12.8230   -2.3340 C   0  0  0  0  0  0  0  0  0  0  0  0
   -0.9380   14.4330   -3.4980 C   0  0  0  0  0  0  0  0  0  0  0  0
   -2.7390   14.8230   -0.1450 C   0  0  0  0  0  0  0  0  0  0  0  0
   -3.4040   11.6550   -2.6390 C   0  0  0  0  0  0  0  0  0  0  0  0
   -5.3950   12.7570   -1.7950 C   0  0  0  0  0  0  0  0  0  0  0  0
   -0.0720   14.1380   -4.7270 C   0  0  0  0  0  0  0  0  0  0  0  0
   -2.0690   14.3900    0.8980 N   0  0  0  0  0  0  0  0  0  0  0  0
   -4.2700   15.5140    0.2640 S   0  0  0  0  0  0  0  0  0  0  0  0
   -4.0020   10.4170   -2.4120 C   0  0  0  0  0  0  0  0  0  0  0  0
   -5.9860   11.5150   -1.5690 C   0  0  0  0  0  0  0  0  0  0  0  0
    0.4630   12.6900   -4.7590 C   0  0  1  0  0  0  0  0  0  0  0  0
   -3.9080   15.1560    1.8850 C   0  0  0  0  0  0  0  0  0  0  0  0
   -2.7450   14.5800    2.0710 N   0  0  0  0  0  0  0  0  0  0  0  0
   -5.2900   10.3500   -1.8810 C   0  0  0  0  0  0  0  0  0  0  0  0
    0.9180   12.1790   -3.4050 C   0  0  0  0  0  0  0  0  0  0  0  0
   -0.4990   11.7370   -5.2680 N   0  0  0  0  0  0  0  0  0  0  0  0
    1.5750   13.0650   -2.6340 O   0  0  0  0  0  0  0  0  0  0  0  0
    0.7360   11.0560   -2.9660 O   0  0  0  0  0  0  0  0  0  0  0  0
   -0.3140   10.7420   -6.1830 C   0  0  0  0  0  0  0  0  0  0  0  0
   -1.7680   11.7970   -4.8010 N   0  0  0  0  0  0  0  0  0  0  0  0
   -1.5310   10.1270   -6.2980 C   0  0  0  0  0  0  0  0  0  0  0  0
   -2.3950   10.8060   -5.4360 C   0  0  0  0  0  0  0  0  0  0  0  0
   -1.9950    8.6770   -7.3690 Br  0  0  0  0  0  0  0  0  0  0  0  0
  1  2  2  0
  2  3  2  0
  2  4  1  1
  2  5  1  0
  3  6  1  0
  4  7  1  0
  5  8  2  0
  5  9  1  0
  6 10  1  0
  7 11  2  0
  7 12  1  0
  8 13  1  0
  9 14  2  0
 15 10  1  1
 12 16  1  0
 11 17  1  0
 16 17  2  0
 13 18  2  0
 14 18  1  0
 15 19  1  0
 15 20  1  0
 19 21  1  0
 19 22  2  0
 20 23  1  0
 20 24  1  0
 23 25  2  0
 24 26  2  0
 25 26  1  0
 25 27  1  0
M  END
