mac-x0190-mac-x0148
     RDKit          3D

 25 29  0  0  0  0  0  0  0  0999 V2000
   -8.9820   15.0560    2.3900 O   0  0  0  0  0  0  0  0  0  0  0  0
   -8.8390   14.1700    1.2850 C   0  0  0  0  0  0  0  0  0  0  0  0
   -7.4610   14.3220    0.7520 C   0  0  0  0  0  0  0  0  0  0  0  0
   -7.2110   15.0180   -0.4090 N   0  0  0  0  0  0  0  0  0  0  0  0
   -6.3390   13.8490    1.2650 N   0  0  0  0  0  0  0  0  0  0  0  0
   -5.8690   14.9670   -0.6140 C   0  0  0  0  0  0  0  0  0  0  0  0
   -5.3430   14.2480    0.4110 C   0  0  0  0  0  0  0  0  0  0  0  0
   -5.1850   15.5460   -1.6690 C   0  0  0  0  0  0  0  0  0  0  0  0
   -3.8750   13.9720    0.5150 C   0  0  0  0  0  0  0  0  0  0  0  0
   -3.8360   15.4990   -1.6200 C   0  0  0  0  0  0  0  0  0  0  0  0
   -2.9730   14.8210   -0.4860 C   0  0  1  0  0  0  0  0  0  0  0  0
   -2.3410   15.8620    0.4150 C   0  0  0  0  0  0  0  0  0  0  0  0
   -1.6260   14.0920   -1.0190 C   0  0  1  0  0  0  0  0  0  0  0  0
   -1.4180   13.6400   -2.4220 N   0  0  0  0  0  0  0  0  0  0  0  0
   -0.3830   14.7640   -0.6210 N   0  0  0  0  0  0  0  0  0  0  0  0
   -1.4200   15.2670    1.3870 N   0  0  0  0  0  0  0  0  0  0  0  0
   -1.4430   14.5410   -3.6140 C   0  0  2  0  0  0  0  0  0  0  0  0
   -0.3380   12.6650   -2.4780 C   0  0  0  0  0  0  0  0  0  0  0  0
   -0.2080   14.7690    0.8000 C   0  0  0  0  0  0  0  0  0  0  0  0
   -2.8690   15.0510   -3.9370 C   0  0  0  0  0  0  0  0  0  0  0  0
   -1.0520   13.9130   -4.9850 C   0  0  2  0  0  0  0  0  0  0  0  0
   -0.3440   11.8180   -3.7330 C   0  0  0  0  0  0  0  0  0  0  0  0
   -2.3810   13.6770   -5.6680 C   0  0  0  0  0  0  0  0  0  0  0  0
   -3.1360   14.8290   -5.3290 O   0  0  0  0  0  0  0  0  0  0  0  0
   -0.1760   12.6640   -4.9830 C   0  0  0  0  0  0  0  0  0  0  0  0
  1  2  1  0
  2  3  1  0
  3  4  1  0
  3  5  2  0
  4  6  1  0
  5  7  1  0
  6  7  2  0
  6  8  1  0
  7  9  1  0
  8 10  2  0
 11  9  1  1
 11 10  1  0
 11 12  1  0
 11 13  1  0
 13 14  1  6
 13 15  1  0
 12 16  1  0
 14 17  1  0
 14 18  1  0
 15 19  1  0
 16 19  1  0
 17 20  1  6
 17 21  1  0
 18 22  1  0
 21 23  1  1
 20 24  1  0
 23 24  1  0
 21 25  1  0
 22 25  1  0
M  END
