mac-x0284-diamond-x0849_0_A
     RDKit          3D

 21 23  0  0  0  0  0  0  0  0999 V2000
   -5.7040   14.5820   -4.5350 C   0  0  0  0  0  0  0  0  0  0  0  0
   -4.4270   14.6790   -3.8050 C   0  0  0  0  0  0  0  0  0  0  0  0
   -4.5260   14.8270   -2.4630 C   0  0  0  0  0  0  0  0  0  0  0  0
   -3.1580   14.6110   -4.4390 C   0  0  0  0  0  0  0  0  0  0  0  0
   -2.0000   14.6930   -3.6720 C   0  0  0  0  0  0  0  0  0  0  0  0
   -3.3870   14.9010   -1.7500 C   0  0  0  0  0  0  0  0  0  0  0  0
   -0.5890   14.6290   -4.1170 C   0  0  0  0  0  0  0  0  0  0  0  0
   -2.1460   14.8390   -2.3620 C   0  0  0  0  0  0  0  0  0  0  0  0
   -3.4380   15.0190   -0.3550 C   0  0  0  0  0  0  0  0  0  0  0  0
   -1.0170   14.9230   -1.6170 O   0  0  0  0  0  0  0  0  0  0  0  0
    0.3620   14.6920   -3.3390 O   0  0  0  0  0  0  0  0  0  0  0  0
   -0.4120   14.4710   -5.4240 O   0  0  0  0  0  0  0  0  0  0  0  0
   -2.2830   14.6360    0.2690 C   0  0  0  0  0  0  0  0  0  0  0  0
   -4.5400   15.4620    0.3560 C   0  0  0  0  0  0  0  0  0  0  0  0
   -2.2480   14.7040    1.6160 C   0  0  0  0  0  0  0  0  0  0  0  0
   -4.3890   15.4820    1.7190 C   0  0  0  0  0  0  0  0  0  0  0  0
   -1.1350   14.1770   -0.4100 C   0  0  0  0  0  0  0  0  0  0  0  0
   -3.2520   15.1060    2.3220 N   0  0  0  0  0  0  0  0  0  0  0  0
   -1.1950   14.3630    2.2580 N   0  0  0  0  0  0  0  0  0  0  0  0
   -0.0240   13.8170    0.2920 C   0  0  0  0  0  0  0  0  0  0  0  0
   -0.1260   13.9330    1.6450 C   0  0  0  0  0  0  0  0  0  0  0  0
  1  2  1  0
  2  3  2  0
  2  4  1  0
  4  5  2  0
  3  6  1  0
  5  7  1  0
  5  8  1  0
  6  8  2  0
  6  9  1  0
  8 10  1  0
  7 11  2  0
  7 12  1  0
  9 13  1  0
  9 14  2  0
 13 15  2  0
 14 16  1  0
 13 17  1  0
 15 18  1  0
 16 18  2  0
 15 19  1  0
 17 20  2  0
 19 21  2  0
 20 21  1  0
M  END
