mac-x0555-mac-x0402
     RDKit          3D

 12 13  0  0  0  0  0  0  0  0999 V2000
   -7.5300   14.3820    2.8270 N   0  0  0  0  0  0  0  0  0  0  0  0
   -6.9570   14.5420    1.5630 C   0  0  0  0  0  0  0  0  0  0  0  0
   -7.6840   14.5820    0.3790 C   0  0  0  0  0  0  0  0  0  0  0  0
   -5.5830   14.6730    1.4500 C   0  0  0  0  0  0  0  0  0  0  0  0
   -4.9820   14.8280    0.2000 C   0  0  0  0  0  0  0  0  0  0  0  0
   -7.1420   14.7330   -0.8580 N   0  0  0  0  0  0  0  0  0  0  0  0
   -5.8020   14.8520   -0.9470 C   0  0  0  0  0  0  0  0  0  0  0  0
   -3.5980   14.9500    0.0900 C   0  0  0  0  0  0  0  0  0  0  0  0
   -5.1940   14.9970   -2.1940 C   0  0  0  0  0  0  0  0  0  0  0  0
   -3.0130   15.0870   -1.1590 C   0  0  0  0  0  0  0  0  0  0  0  0
   -3.7990   15.1080   -2.2940 C   0  0  0  0  0  0  0  0  0  0  0  0
   -2.9870   15.2660   -3.8060 Cl  0  0  0  0  0  0  0  0  0  0  0  0
  1  2  1  0
  2  3  2  0
  2  4  1  0
  4  5  2  0
  3  6  1  0
  5  7  1  0
  6  7  2  0
  5  8  1  0
  7  9  1  0
  8 10  2  0
  9 11  2  0
 10 11  1  0
 11 12  1  0
M  END
