mac-x0132-mac-x0572
     RDKit          3D

 13 14  0  0  0  0  0  0  0  0999 V2000
   -4.3540   14.4940    2.0960 N   0  0  0  0  0  0  0  0  0  0  0  0
   -5.3700   14.7900    1.1120 C   0  0  2  0  0  0  0  0  0  0  0  0
   -6.7460   14.4520    1.5060 N   0  0  0  0  0  0  0  0  0  0  0  0
   -4.9560   14.1640   -0.2110 C   0  0  1  0  0  0  0  0  0  0  0  0
   -7.2070   14.6700    2.8840 C   0  0  0  0  0  0  0  0  0  0  0  0
   -6.1100   14.3830   -1.2340 C   0  0  1  0  0  0  0  0  0  0  0  0
   -7.7840   14.7540    0.5480 C   0  0  2  0  0  0  0  0  0  0  0  0
   -3.5810   14.6130   -0.6630 C   0  0  0  0  0  0  0  0  0  0  0  0
   -8.7390   13.7370    0.3740 O   0  0  0  0  0  0  0  0  0  0  0  0
   -7.2510   15.1710   -0.7340 N   0  0  0  0  0  0  0  0  0  0  0  0
   -5.6640   14.9130   -2.5740 C   0  0  0  0  0  0  0  0  0  0  0  0
   -3.3420   15.0850   -1.8860 C   0  0  0  0  0  0  0  0  0  0  0  0
   -4.3860   15.2220   -2.8550 C   0  0  0  0  0  0  0  0  0  0  0  0
  2  1  1  1
  2  3  1  0
  2  4  1  0
  3  5  1  0
  4  6  1  0
  3  7  1  0
  4  8  1  6
  7  9  1  6
  6 10  1  0
  7 10  1  0
  6 11  1  6
  8 12  2  0
 11 13  2  0
 12 13  1  0
M  END
