mac-x0301-mac-x0206
     RDKit          3D

 21 23  0  0  0  0  0  0  0  0999 V2000
    0.6790   14.6050   -2.9120 O   0  0  0  0  0  0  0  0  0  0  0  0
   -0.6330   14.4430   -3.1600 C   0  0  0  0  0  0  0  0  0  0  0  0
   -1.0800   14.1640   -4.2590 O   0  0  0  0  0  0  0  0  0  0  0  0
   -1.4780   14.6360   -1.9650 C   0  0  0  0  0  0  0  0  0  0  0  0
   -0.9950   14.6170   -0.6630 C   0  0  0  0  0  0  0  0  0  0  0  0
   -2.8330   14.8420   -2.1250 C   0  0  0  0  0  0  0  0  0  0  0  0
   -1.8290   14.8060    0.4340 C   0  0  0  0  0  0  0  0  0  0  0  0
   -3.6330   15.0180   -0.9960 C   0  0  0  0  0  0  0  0  0  0  0  0
    0.2670   14.4240   -0.2680 O   0  0  0  0  0  0  0  0  0  0  0  0
   -3.1500   15.0090    0.2930 C   0  0  0  0  0  0  0  0  0  0  0  0
   -1.2050   14.7660    1.6280 O   0  0  0  0  0  0  0  0  0  0  0  0
    0.1040   14.4850    1.1630 C   0  0  0  0  0  0  0  0  0  0  0  0
   -5.0190   15.2030   -1.2450 C   0  0  0  0  0  0  0  0  0  0  0  0
   -5.3370   15.5010   -2.3840 O   0  0  0  0  0  0  0  0  0  0  0  0
   -6.0280   14.9930   -0.2060 C   0  0  0  0  0  0  0  0  0  0  0  0
   -7.3420   14.8200   -0.5720 C   0  0  0  0  0  0  0  0  0  0  0  0
   -5.6700   14.9670    1.1570 C   0  0  0  0  0  0  0  0  0  0  0  0
   -7.6630   14.8450   -1.8970 O   0  0  0  0  0  0  0  0  0  0  0  0
   -8.3300   14.6230    0.3840 C   0  0  0  0  0  0  0  0  0  0  0  0
   -6.6670   14.7700    2.1190 C   0  0  0  0  0  0  0  0  0  0  0  0
   -7.9870   14.5990    1.7340 C   0  0  0  0  0  0  0  0  0  0  0  0
  1  2  1  0
  2  3  2  0
  2  4  1  0
  4  5  2  0
  4  6  1  0
  5  7  1  0
  6  8  2  0
  5  9  1  0
  7 10  2  0
  8 10  1  0
  7 11  1  0
  9 12  1  0
 11 12  1  0
  8 13  1  0
 13 14  2  0
 13 15  1  0
 15 16  2  0
 15 17  1  0
 16 18  1  0
 16 19  1  0
 17 20  2  0
 19 21  2  0
 20 21  1  0
M  END
