mac-x0277-mac-x0138
     RDKit          3D

 24 26  0  0  0  0  0  0  0  0999 V2000
   -1.1340   18.3160   -5.8550 Cl  0  0  0  0  0  0  0  0  0  0  0  0
   -0.4460   16.8910   -5.1610 C   0  0  0  0  0  0  0  0  0  0  0  0
   -1.2310   15.8860   -4.6190 C   0  0  0  0  0  0  0  0  0  0  0  0
    0.9260   16.7540   -5.1450 C   0  0  0  0  0  0  0  0  0  0  0  0
   -2.9430   16.0650   -4.6800 Cl  0  0  0  0  0  0  0  0  0  0  0  0
   -0.6690   14.7410   -4.0330 C   0  0  0  0  0  0  0  0  0  0  0  0
    1.5010   15.6100   -4.5960 C   0  0  0  0  0  0  0  0  0  0  0  0
   -1.5970   13.7380   -3.4200 C   0  0  0  0  0  0  0  0  0  0  0  0
    0.7410   14.5840   -4.0390 C   0  0  0  0  0  0  0  0  0  0  0  0
    1.5620   13.4040   -3.5030 C   0  0  0  0  0  0  0  0  0  0  0  0
   -2.4170   14.2740   -2.3130 N   0  0  0  0  0  0  0  0  0  0  0  0
    0.8840   12.4580   -2.5370 C   0  0  0  0  0  0  0  0  0  0  0  0
   -3.6900   14.7710   -2.4550 C   0  0  0  0  0  0  0  0  0  0  0  0
   -2.1030   14.3720   -0.9580 C   0  0  0  0  0  0  0  0  0  0  0  0
    0.4590   11.3210   -3.1310 O   0  0  0  0  0  0  0  0  0  0  0  0
    0.7130   12.6350   -1.3430 O   0  0  0  0  0  0  0  0  0  0  0  0
   -4.2140   15.1610   -1.3130 N   0  0  0  0  0  0  0  0  0  0  0  0
   -3.2430   14.9100   -0.3740 C   0  0  0  0  0  0  0  0  0  0  0  0
   -0.9640   14.0280   -0.2970 N   0  0  0  0  0  0  0  0  0  0  0  0
   -3.2140   15.0930    1.0150 C   0  0  0  0  0  0  0  0  0  0  0  0
   -1.0570   14.2580    1.0370 C   0  0  0  0  0  0  0  0  0  0  0  0
   -4.2770   15.6010    1.7480 N   0  0  0  0  0  0  0  0  0  0  0  0
    0.0080   13.9680    1.8750 N   0  0  0  0  0  0  0  0  0  0  0  0
   -2.1000   14.7530    1.6900 N   0  0  0  0  0  0  0  0  0  0  0  0
  1  2  1  0
  2  3  2  0
  2  4  1  0
  3  5  1  0
  3  6  1  0
  4  7  2  0
  6  8  1  0
  6  9  2  0
  7  9  1  0
  9 10  1  0
  8 11  1  0
 10 12  1  0
 11 13  1  0
 11 14  1  0
 12 15  1  0
 12 16  2  0
 13 17  2  0
 14 18  2  0
 17 18  1  0
 14 19  1  0
 18 20  1  0
 19 21  2  0
 20 22  1  0
 21 23  1  0
 20 24  2  0
 21 24  1  0
M  END
