mac-x0441-mac-x0576
     RDKit          3D

 32 35  0  0  0  0  0  0  0  0999 V2000
    0.4850   10.8750   -3.3580 O   0  0  0  0  0  0  0  0  0  0  0  0
    0.5990   12.1940   -3.6390 C   0  0  0  0  0  0  0  0  0  0  0  0
    0.7230   13.1300   -2.7900 N   0  0  0  0  0  0  0  0  0  0  0  0
    0.5900   12.6580   -5.0640 C   0  0  0  0  0  0  0  0  0  0  0  0
    0.7970   14.4200   -3.5040 C   0  0  0  0  0  0  0  0  0  0  0  0
    0.2560   11.6640   -6.0410 N   0  0  0  0  0  0  0  0  0  0  0  0
    0.3620   15.5850   -2.6150 C   0  0  0  0  0  0  0  0  0  0  0  0
    1.0130   11.6610   -7.1610 N   0  0  0  0  0  0  0  0  0  0  0  0
   -0.7130   10.7180   -6.0490 C   0  0  0  0  0  0  0  0  0  0  0  0
   -1.0880   15.6880   -2.3950 N   0  0  0  0  0  0  0  0  0  0  0  0
    0.4950   10.6760   -7.9130 C   0  0  0  0  0  0  0  0  0  0  0  0
   -0.5860   10.0580   -7.2450 C   0  0  0  0  0  0  0  0  0  0  0  0
   -1.7310   10.4260   -5.0080 C   0  0  0  0  0  0  0  0  0  0  0  0
    0.9800   10.2780   -9.2800 C   0  0  0  0  0  0  0  0  0  0  0  0
   -1.4610    8.9370   -7.6700 C   0  0  0  0  0  0  0  0  0  0  0  0
   -2.8990    9.6840   -5.6790 C   0  0  0  0  0  0  0  0  0  0  0  0
   -1.5550   15.2690   -1.2760 C   0  0  0  0  0  0  0  0  0  0  0  0
    1.6940    9.1220   -9.2940 F   0  0  0  0  0  0  0  0  0  0  0  0
   -0.0710   10.0750  -10.1120 F   0  0  0  0  0  0  0  0  0  0  0  0
    1.6980   11.2270   -9.9130 F   0  0  0  0  0  0  0  0  0  0  0  0
   -2.4100    8.5000   -6.5360 C   0  0  0  0  0  0  0  0  0  0  0  0
   -0.6310   14.7020   -0.4690 N   0  0  0  0  0  0  0  0  0  0  0  0
   -2.9790   15.3370   -0.7220 C   0  0  2  0  0  0  0  0  0  0  0  0
   -0.7000   14.8730    0.9160 C   0  0  2  0  0  0  0  0  0  0  0  0
   -3.0200   14.5450    0.6090 C   0  0  1  0  0  0  0  0  0  0  0  0
   -4.0670   14.8720   -1.5890 N   0  0  0  0  0  0  0  0  0  0  0  0
   -0.0100   13.9140    1.7040 N   0  0  0  0  0  0  0  0  0  0  0  0
   -1.9950   14.9230    1.5560 N   0  0  0  0  0  0  0  0  0  0  0  0
   -4.2550   14.8090    1.2840 N   0  0  0  0  0  0  0  0  0  0  0  0
   -5.3300   15.2900   -0.9360 C   0  0  0  0  0  0  0  0  0  0  0  0
   -5.4250   14.9490    0.5670 C   0  0  0  0  0  0  0  0  0  0  0  0
   -6.5060   14.8000    1.1300 O   0  0  0  0  0  0  0  0  0  0  0  0
  1  2  1  0
  2  3  2  3
  2  4  1  0
  3  5  1  0
  4  6  1  0
  5  7  1  0
  6  8  1  0
  6  9  1  0
  7 10  1  0
  8 11  2  0
  9 12  2  0
 11 12  1  0
  9 13  1  0
 11 14  1  0
 12 15  1  0
 13 16  1  0
 10 17  2  3
 14 18  1  0
 14 19  1  0
 14 20  1  0
 15 21  1  0
 16 21  1  0
 17 22  1  0
 17 23  1  0
 22 24  1  0
 23 25  1  0
 23 26  1  6
 24 27  1  1
 24 28  1  0
 25 28  1  1
 25 29  1  0
 26 30  1  0
 29 31  1  0
 30 31  1  0
 31 32  2  0
M  END
