mac-x0576-mac-x0263
     RDKit          3D

 21 23  0  0  0  0  0  0  0  0999 V2000
    0.1290   14.1840    1.8350 N   0  0  0  0  0  0  0  0  0  0  0  0
   -0.9000   14.3280    0.9960 C   0  0  0  0  0  0  0  0  0  0  0  0
   -2.0150   14.2010    1.5340 N   0  0  0  0  0  0  0  0  0  0  0  0
   -0.7370   14.5800   -0.3420 N   0  0  0  0  0  0  0  0  0  0  0  0
   -1.8180   14.7870   -1.1820 C   0  0  0  0  0  0  0  0  0  0  0  0
   -3.1150   14.3050    0.7650 C   0  0  0  0  0  0  0  0  0  0  0  0
   -1.6860   15.0660   -2.3720 O   0  0  0  0  0  0  0  0  0  0  0  0
   -3.1670   14.6150   -0.5370 C   0  0  0  0  0  0  0  0  0  0  0  0
   -4.2660   14.0410    1.3860 N   0  0  0  0  0  0  0  0  0  0  0  0
   -5.5220   14.5290    1.0630 C   0  0  1  0  0  0  0  0  0  0  0  0
   -4.4130   14.7380   -1.2190 N   0  0  0  0  0  0  0  0  0  0  0  0
   -5.7700   15.4140    2.0880 O   0  0  0  0  0  0  0  0  0  0  0  0
   -5.6010   15.1640   -0.4190 C   0  0  1  0  0  0  0  0  0  0  0  0
   -6.5940   13.5760    1.0910 N   0  0  0  0  0  0  0  0  0  0  0  0
   -7.5510   14.5090    0.6270 C   0  0  1  0  0  0  0  0  0  0  0  0
   -7.0400   14.8330   -0.7290 N   0  0  0  0  0  0  0  0  0  0  0  0
   -9.0380   14.1870    0.8310 C   0  0  0  0  0  0  0  0  0  0  0  0
   -9.7770   15.4670    1.3010 C   0  0  0  0  0  0  0  0  0  0  0  0
  -10.7150   15.2640    2.4670 C   0  0  0  0  0  0  0  0  0  0  0  0
  -11.4130   14.1170    2.4110 O   0  0  0  0  0  0  0  0  0  0  0  0
  -10.8850   16.0420    3.3940 O   0  0  0  0  0  0  0  0  0  0  0  0
  1  2  1  0
  2  3  2  0
  2  4  1  0
  4  5  1  0
  3  6  1  0
  5  7  2  0
  5  8  1  0
  6  8  2  0
  6  9  1  0
  9 10  1  0
  8 11  1  0
 10 12  1  1
 10 13  1  0
 13 11  1  6
 10 14  1  0
 14 15  1  0
 13 16  1  0
 15 16  1  0
 15 17  1  6
 17 18  1  0
 18 19  1  0
 19 20  1  0
 19 21  2  0
M  END
