mac-x0375-mac-x0411
     RDKit          3D

 13 13  0  0  0  0  0  0  0  0999 V2000
    1.5130   12.9080   -2.8650 O   0  0  0  0  0  0  0  0  0  0  0  0
    0.9240   12.0290   -3.7210 C   0  0  0  0  0  0  0  0  0  0  0  0
    0.5100   10.9560   -3.3170 O   0  0  0  0  0  0  0  0  0  0  0  0
    0.8790   12.5380   -5.1720 C   0  0  0  0  0  0  0  0  0  0  0  0
    0.8150   11.4880   -6.1590 O   0  0  0  0  0  0  0  0  0  0  0  0
   -0.4040   10.8420   -6.2790 C   0  0  0  0  0  0  0  0  0  0  0  0
   -0.4980    9.5630   -6.8910 C   0  0  0  0  0  0  0  0  0  0  0  0
   -1.5930   11.4280   -5.8110 C   0  0  0  0  0  0  0  0  0  0  0  0
    0.8350    8.6980   -7.5680 Cl  0  0  0  0  0  0  0  0  0  0  0  0
   -1.6360   12.9920   -5.0790 Cl  0  0  0  0  0  0  0  0  0  0  0  0
   -1.7220    8.9100   -6.9930 C   0  0  0  0  0  0  0  0  0  0  0  0
   -2.8120   10.7580   -5.9320 C   0  0  0  0  0  0  0  0  0  0  0  0
   -2.8780    9.5020   -6.5130 C   0  0  0  0  0  0  0  0  0  0  0  0
  1  2  1  0
  2  3  2  0
  2  4  1  0
  4  5  1  0
  5  6  1  0
  6  7  2  0
  6  8  1  0
  7  9  1  0
  8 10  1  0
  7 11  1  0
  8 12  2  0
 11 13  2  0
 12 13  1  0
M  END
