mac-x0411-mac-x0204
     RDKit          3D

 22 23  0  0  0  0  0  0  0  0999 V2000
    0.7740    9.2810   -8.2260 Cl  0  0  0  0  0  0  0  0  0  0  0  0
   -0.5220    9.4560   -7.0980 C   0  0  0  0  0  0  0  0  0  0  0  0
   -0.4790   10.4270   -6.0860 C   0  0  0  0  0  0  0  0  0  0  0  0
   -1.6170    8.5980   -7.2170 C   0  0  0  0  0  0  0  0  0  0  0  0
    0.6300   11.2470   -6.0110 O   0  0  0  0  0  0  0  0  0  0  0  0
   -1.5640   10.5140   -5.1940 C   0  0  0  0  0  0  0  0  0  0  0  0
   -2.6860    8.6980   -6.3280 C   0  0  0  0  0  0  0  0  0  0  0  0
   -1.6380   11.6500   -3.9080 Cl  0  0  0  0  0  0  0  0  0  0  0  0
    0.3760   12.5600   -5.4960 C   0  0  0  0  0  0  0  0  0  0  0  0
   -2.6550    9.6560   -5.3200 C   0  0  0  0  0  0  0  0  0  0  0  0
    0.8010   12.6770   -4.0330 C   0  0  0  0  0  0  0  0  0  0  0  0
    1.0740   13.9750   -3.7370 O   0  0  0  0  0  0  0  0  0  0  0  0
    0.8630   11.7090   -3.2810 O   0  0  0  0  0  0  0  0  0  0  0  0
    0.1770   14.7220   -3.0490 C   0  0  0  0  0  0  0  0  0  0  0  0
    0.2570   15.1210   -1.9010 O   0  0  0  0  0  0  0  0  0  0  0  0
   -1.0090   15.0350   -3.9040 C   0  0  0  0  0  0  0  0  0  0  0  0
   -1.0470   16.0690   -4.8590 C   0  0  0  0  0  0  0  0  0  0  0  0
   -2.1590   14.2650   -3.7520 C   0  0  0  0  0  0  0  0  0  0  0  0
   -2.2150   16.2750   -5.6010 C   0  0  0  0  0  0  0  0  0  0  0  0
   -3.3030   14.4440   -4.4670 N   0  0  0  0  0  0  0  0  0  0  0  0
   -2.3080   17.2680   -6.5520 O   0  0  0  0  0  0  0  0  0  0  0  0
   -3.3030   15.4460   -5.3760 C   0  0  0  0  0  0  0  0  0  0  0  0
  1  2  1  0
  2  3  2  0
  2  4  1  0
  3  5  1  0
  3  6  1  0
  4  7  2  0
  6  8  1  0
  5  9  1  0
  6 10  2  0
  7 10  1  0
  9 11  1  0
 11 12  1  0
 11 13  2  0
 12 14  1  0
 14 15  2  0
 14 16  1  0
 16 17  2  0
 16 18  1  0
 17 19  1  0
 18 20  2  0
 19 21  1  0
 19 22  2  0
 20 22  1  0
M  END
