mac-x0398-diamond-x0864_0_A
     RDKit          3D

 25 26  0  0  0  0  0  0  0  0999 V2000
   -6.3450   14.8300    2.0840 N   0  0  0  0  0  0  0  0  0  0  0  0
   -5.5960   14.9250    0.9090 C   0  0  0  0  0  0  0  0  0  0  0  0
   -4.1940   14.9120    0.9330 C   0  0  0  0  0  0  0  0  0  0  0  0
   -6.2520   15.0360   -0.3160 C   0  0  0  0  0  0  0  0  0  0  0  0
   -5.5280   15.1310   -1.5010 C   0  0  0  0  0  0  0  0  0  0  0  0
   -3.4640   15.0060   -0.2560 C   0  0  0  0  0  0  0  0  0  0  0  0
   -6.1990   15.2370   -2.6830 O   0  0  0  0  0  0  0  0  0  0  0  0
   -4.1360   15.1150   -1.4850 C   0  0  0  0  0  0  0  0  0  0  0  0
   -3.3910   15.2080   -2.7640 C   0  0  0  0  0  0  0  0  0  0  0  0
   -3.9000   15.3610   -3.8590 O   0  0  0  0  0  0  0  0  0  0  0  0
   -2.0600   15.0890   -2.5270 O   0  0  0  0  0  0  0  0  0  0  0  0
   -1.4580   13.8680   -2.9750 C   0  0  0  0  0  0  0  0  0  0  0  0
   -0.4860   14.0810   -4.1420 C   0  0  0  0  0  0  0  0  0  0  0  0
    0.3610   12.8200   -4.4270 C   0  0  1  0  0  0  0  0  0  0  0  0
    0.7680   12.1870   -3.0870 C   0  0  0  0  0  0  0  0  0  0  0  0
   -0.2610   11.8640   -5.3790 N   0  0  0  0  0  0  0  0  0  0  0  0
    0.4570   10.8890   -2.9070 O   0  0  0  0  0  0  0  0  0  0  0  0
    1.3460   12.8200   -2.2140 O   0  0  0  0  0  0  0  0  0  0  0  0
   -1.4130   11.2020   -4.9680 C   0  0  0  0  0  0  0  0  0  0  0  0
    0.4790   11.3880   -6.4520 C   0  0  0  0  0  0  0  0  0  0  0  0
    1.5590   11.8690   -6.7760 O   0  0  0  0  0  0  0  0  0  0  0  0
   -1.8870   10.1420   -5.6270 C   0  0  0  0  0  0  0  0  0  0  0  0
   -0.0720   10.2400   -7.2080 C   0  0  0  0  0  0  0  0  0  0  0  0
   -1.2030    9.6540   -6.7970 C   0  0  0  0  0  0  0  0  0  0  0  0
   -1.9540    8.2010   -7.6930 Br  0  0  0  0  0  0  0  0  0  0  0  0
  1  2  1  0
  2  3  2  0
  2  4  1  0
  4  5  2  0
  3  6  1  0
  5  7  1  0
  5  8  1  0
  6  8  2  0
  8  9  1  0
  9 10  2  0
  9 11  1  0
 11 12  1  0
 12 13  1  0
 14 13  1  1
 14 15  1  0
 14 16  1  0
 15 17  1  0
 15 18  2  0
 16 19  1  0
 16 20  1  0
 20 21  2  0
 19 22  2  0
 20 23  1  0
 22 24  1  0
 23 24  2  0
 24 25  1  0
M  END
