mac-x0341-diamond-x0689_0_A
     RDKit          3D

 19 21  0  0  0  0  0  0  0  0999 V2000
   -8.1810   14.5290    1.8540 N   0  0  0  0  0  0  0  0  0  0  0  0
   -7.3700   14.6750    0.7800 C   0  0  0  0  0  0  0  0  0  0  0  0
   -6.1130   14.5960    0.9360 N   0  0  0  0  0  0  0  0  0  0  0  0
   -7.9250   14.9090   -0.4440 N   0  0  0  0  0  0  0  0  0  0  0  0
   -7.2050   14.8250   -1.6210 C   0  0  0  0  0  0  0  0  0  0  0  0
   -5.3090   14.7570   -0.1860 C   0  0  0  0  0  0  0  0  0  0  0  0
   -7.7320   14.6980   -2.7080 O   0  0  0  0  0  0  0  0  0  0  0  0
   -5.7560   14.8780   -1.4800 C   0  0  0  0  0  0  0  0  0  0  0  0
   -3.9980   14.7940    0.0170 C   0  0  0  0  0  0  0  0  0  0  0  0
   -3.1020   14.9450   -1.0000 C   0  0  0  0  0  0  0  0  0  0  0  0
   -4.8750   15.0360   -2.5680 C   0  0  0  0  0  0  0  0  0  0  0  0
   -3.5040   15.0710   -2.3190 C   0  0  0  0  0  0  0  0  0  0  0  0
   -1.8870   14.9390   -0.4590 N   0  0  0  0  0  0  0  0  0  0  0  0
   -2.2300   14.4540    0.8790 C   0  0  2  0  0  0  0  0  0  0  0  0
   -0.7810   14.4270   -1.0490 C   0  0  0  0  0  0  0  0  0  0  0  0
   -3.1970   15.1490    1.7090 N   0  0  0  0  0  0  0  0  0  0  0  0
    0.2010   14.0350   -0.2730 C   0  0  0  0  0  0  0  0  0  0  0  0
   -1.2040   14.2990    1.8120 N   0  0  0  0  0  0  0  0  0  0  0  0
    0.0710   14.1670    1.2180 C   0  0  0  0  0  0  0  0  0  0  0  0
  1  2  1  0
  2  3  2  0
  2  4  1  0
  4  5  1  0
  3  6  1  0
  5  7  2  0
  5  8  1  0
  6  8  2  0
  6  9  1  0
  9 10  2  0
  8 11  1  0
 10 12  1  0
 11 12  2  0
 10 13  1  0
 13 14  1  0
 13 15  1  0
 14 16  1  1
 15 17  2  0
 14 18  1  0
 17 19  1  0
 18 19  1  0
M  END
