mac-x0138-mac-x0510
     RDKit          3D

 12 13  0  0  0  0  0  0  0  0999 V2000
   -1.0700   14.6210   -3.2860 C   0  0  0  0  0  0  0  0  0  0  0  0
   -2.0800   14.8300   -2.2890 N   0  0  0  0  0  0  0  0  0  0  0  0
   -3.3850   15.1710   -2.5210 C   0  0  0  0  0  0  0  0  0  0  0  0
   -1.9050   14.7230   -0.9350 C   0  0  0  0  0  0  0  0  0  0  0  0
   -4.0620   15.2980   -1.4040 N   0  0  0  0  0  0  0  0  0  0  0  0
   -3.1500   15.0220   -0.4080 C   0  0  0  0  0  0  0  0  0  0  0  0
   -0.7860   14.4060   -0.2490 N   0  0  0  0  0  0  0  0  0  0  0  0
   -3.2500   14.9960    0.9830 C   0  0  0  0  0  0  0  0  0  0  0  0
   -1.0050   14.4010    1.0820 C   0  0  0  0  0  0  0  0  0  0  0  0
   -4.4330   15.2900    1.6440 N   0  0  0  0  0  0  0  0  0  0  0  0
    0.0350   14.0900    1.9410 N   0  0  0  0  0  0  0  0  0  0  0  0
   -2.1520   14.6750    1.7060 N   0  0  0  0  0  0  0  0  0  0  0  0
  1  2  1  0
  2  3  1  0
  2  4  1  0
  3  5  2  0
  4  6  2  0
  5  6  1  0
  4  7  1  0
  6  8  1  0
  7  9  2  0
  8 10  1  0
  9 11  1  0
  8 12  2  0
  9 12  1  0
M  END
