mac-x0588-mac-x0564
     RDKit          3D

 26 30  0  0  0  0  0  0  0  0999 V2000
   -4.0690   15.5280    1.4560 N   0  0  0  0  0  0  0  0  0  0  0  0
   -3.4400   14.8250    0.3310 C   0  0  2  0  0  0  0  0  0  0  0  0
   -1.9900   15.2710    0.1860 C   0  0  2  0  0  0  0  0  0  0  0  0
   -4.2110   14.7640   -0.8890 N   0  0  0  0  0  0  0  0  0  0  0  0
   -3.7030   15.3040   -2.2130 C   0  0  1  0  0  0  0  0  0  0  0  0
   -1.2370   14.3130   -0.6910 C   0  0  1  0  0  0  0  0  0  0  0  0
   -1.3610   15.1000    1.4980 N   0  0  0  0  0  0  0  0  0  0  0  0
   -5.5080   15.1240   -0.5780 C   0  0  0  0  0  0  0  0  0  0  0  0
   -1.0310   14.7840   -2.1220 C   0  0  1  0  0  0  0  0  0  0  0  0
    0.0070   13.9570    0.0030 N   0  0  0  0  0  0  0  0  0  0  0  0
   -0.0090   14.6830    1.2450 C   0  0  0  0  0  0  0  0  0  0  0  0
   -2.3350   14.8820   -2.9450 C   0  0  1  0  0  0  0  0  0  0  0  0
   -4.8360   15.0680   -3.1960 C   0  0  0  0  0  0  0  0  0  0  0  0
   -6.4610   15.2920   -1.4700 C   0  0  0  0  0  0  0  0  0  0  0  0
   -0.2170   16.0900   -2.2090 C   0  0  0  0  0  0  0  0  0  0  0  0
    0.0130   13.8370   -2.7140 C   0  0  0  0  0  0  0  0  0  0  0  0
   -2.3780   13.8040   -3.9680 N   0  0  0  0  0  0  0  0  0  0  0  0
   -6.1260   15.0680   -2.8390 C   0  0  0  0  0  0  0  0  0  0  0  0
    0.9380   13.3440   -2.0650 O   0  0  0  0  0  0  0  0  0  0  0  0
   -0.2010   17.0070   -3.4590 C   0  0  2  0  0  0  0  0  0  0  0  0
   -1.2110   13.9060   -4.8170 C   0  0  0  0  0  0  0  0  0  0  0  0
   -0.0820   13.5370   -4.0320 N   0  0  0  0  0  0  0  0  0  0  0  0
   -1.4520   17.3510   -4.1000 O   0  0  0  0  0  0  0  0  0  0  0  0
    0.6430   16.5010   -4.6060 C   0  0  0  0  0  0  0  0  0  0  0  0
    0.4460   17.6820   -5.5210 C   0  0  0  0  0  0  0  0  0  0  0  0
   -1.0450   17.9670   -5.3380 C   0  0  0  0  0  0  0  0  0  0  0  0
  2  1  1  1
  2  3  1  0
  2  4  1  0
  4  5  1  0
  3  6  1  0
  3  7  1  1
  4  8  1  0
  6  9  1  0
  6 10  1  1
  7 11  1  0
 10 11  1  0
  5 12  1  0
  9 12  1  0
  5 13  1  6
  8 14  2  0
  9 15  1  1
  9 16  1  0
 12 17  1  1
 13 18  2  0
 14 18  1  0
 16 19  2  0
 20 15  1  1
 17 21  1  0
 16 22  1  0
 21 22  1  0
 20 23  1  0
 20 24  1  0
 24 25  1  0
 23 26  1  0
 25 26  1  0
M  END
