mac-x0568-diamond-x0950_0_A
     RDKit          3D

 19 19  0  0  0  0  0  0  0  0999 V2000
   -8.5470   14.4710    1.4300 C   0  0  0  0  0  0  0  0  0  0  0  0
   -7.2040   14.6280    0.7840 C   0  0  0  0  0  0  0  0  0  0  0  0
   -6.0480   14.5800    1.5540 C   0  0  0  0  0  0  0  0  0  0  0  0
   -7.1780   14.8170   -0.5570 N   0  0  0  0  0  0  0  0  0  0  0  0
   -5.9640   14.9580   -1.1420 C   0  0  0  0  0  0  0  0  0  0  0  0
   -4.8120   14.7260    0.9320 C   0  0  0  0  0  0  0  0  0  0  0  0
   -4.7600   14.9180   -0.4510 C   0  0  0  0  0  0  0  0  0  0  0  0
   -3.4540   15.0660   -1.1250 C   0  0  0  0  0  0  0  0  0  0  0  0
   -3.4150   15.3180   -2.3270 O   0  0  0  0  0  0  0  0  0  0  0  0
   -2.3290   14.8920   -0.3330 N   0  0  0  0  0  0  0  0  0  0  0  0
   -1.2750   13.9510   -0.6690 C   0  0  0  0  0  0  0  0  0  0  0  0
    0.1040   14.5890   -0.5850 C   0  0  0  0  0  0  0  0  0  0  0  0
    1.1150   13.8800   -1.4880 C   0  0  0  0  0  0  0  0  0  0  0  0
    0.7750   12.4820   -1.5830 O   0  0  0  0  0  0  0  0  0  0  0  0
    0.7490   11.9110   -2.8340 C   0  0  0  0  0  0  0  0  0  0  0  0
    1.3100   12.8030   -3.9620 C   0  0  1  0  0  0  0  0  0  0  0  0
    0.3210   10.7840   -3.0440 O   0  0  0  0  0  0  0  0  0  0  0  0
    2.8200   12.9400   -3.8980 C   0  0  0  0  0  0  0  0  0  0  0  0
    0.9730   12.2650   -5.2460 O   0  0  0  0  0  0  0  0  0  0  0  0
  1  2  1  0
  2  3  2  0
  2  4  1  0
  4  5  2  0
  3  6  1  0
  5  7  1  0
  6  7  2  0
  7  8  1  0
  8  9  2  0
  8 10  1  0
 10 11  1  0
 11 12  1  0
 12 13  1  0
 13 14  1  0
 14 15  1  0
 15 16  1  0
 15 17  2  0
 16 18  1  1
 16 19  1  0
M  END
