mac-x0441-mac-x0161
     RDKit          3D

 34 38  0  0  0  0  0  0  0  0999 V2000
    1.7210   11.2920   -4.0030 O   0  0  0  0  0  0  0  0  0  0  0  0
    1.5750   12.5370   -4.4810 C   0  0  0  0  0  0  0  0  0  0  0  0
    2.2950   13.4310   -4.0410 O   0  0  0  0  0  0  0  0  0  0  0  0
    0.5190   12.8100   -5.5360 C   0  0  0  0  0  0  0  0  0  0  0  0
    0.1130   11.7820   -6.5010 N   0  0  0  0  0  0  0  0  0  0  0  0
    0.8850   11.6210   -7.6000 N   0  0  0  0  0  0  0  0  0  0  0  0
   -0.9660   10.8980   -6.5180 C   0  0  0  0  0  0  0  0  0  0  0  0
    0.3040   10.6470   -8.3310 C   0  0  0  0  0  0  0  0  0  0  0  0
   -0.8520   10.1780   -7.6800 C   0  0  0  0  0  0  0  0  0  0  0  0
   -2.0740   10.7010   -5.5170 C   0  0  1  0  0  0  0  0  0  0  0  0
    0.8230   10.1360   -9.6510 C   0  0  0  0  0  0  0  0  0  0  0  0
   -1.8230    9.1220   -8.0660 C   0  0  0  0  0  0  0  0  0  0  0  0
   -2.9300    9.4240   -5.7870 C   0  0  0  0  0  0  0  0  0  0  0  0
   -1.4550   10.5730   -4.2590 O   0  0  0  0  0  0  0  0  0  0  0  0
    1.5730    9.0130   -9.5050 F   0  0  0  0  0  0  0  0  0  0  0  0
   -0.1730    9.8130  -10.5150 F   0  0  0  0  0  0  0  0  0  0  0  0
    1.5990   11.0410  -10.2940 F   0  0  0  0  0  0  0  0  0  0  0  0
   -2.3600    8.4240   -6.8100 C   0  0  0  0  0  0  0  0  0  0  0  0
   -1.2230   11.7820   -3.7440 C   0  0  0  0  0  0  0  0  0  0  0  0
   -1.8450   13.0110   -4.0080 C   0  0  0  0  0  0  0  0  0  0  0  0
   -0.2520   11.8710   -2.8360 N   0  0  0  0  0  0  0  0  0  0  0  0
   -1.1810   13.8910   -3.1890 C   0  0  0  0  0  0  0  0  0  0  0  0
   -0.2280   13.2080   -2.4830 O   0  0  0  0  0  0  0  0  0  0  0  0
   -1.3100   15.3540   -2.9440 C   0  0  0  0  0  0  0  0  0  0  0  0
   -2.1210   15.6540   -1.7700 N   0  0  0  0  0  0  0  0  0  0  0  0
   -3.5280   15.3340   -2.0020 C   0  0  0  0  0  0  0  0  0  0  0  0
   -1.6600   14.9060   -0.6370 C   0  0  2  0  0  0  0  0  0  0  0  0
   -4.3530   15.5560   -0.8100 N   0  0  0  0  0  0  0  0  0  0  0  0
   -2.4080   15.2050    0.6250 C   0  0  1  0  0  0  0  0  0  0  0  0
   -0.3300   15.2600   -0.2100 N   0  0  0  0  0  0  0  0  0  0  0  0
   -3.8780   14.8700    0.3760 C   0  0  1  0  0  0  0  0  0  0  0  0
   -1.5850   14.4950    1.6160 N   0  0  0  0  0  0  0  0  0  0  0  0
   -0.2460   14.5100    1.0320 C   0  0  0  0  0  0  0  0  0  0  0  0
   -4.7820   15.3220    1.4140 N   0  0  0  0  0  0  0  0  0  0  0  0
  1  2  1  0
  2  3  2  0
  2  4  1  0
  4  5  1  0
  5  6  1  0
  5  7  1  0
  6  8  2  0
  7  9  2  0
  8  9  1  0
  7 10  1  0
  8 11  1  0
  9 12  1  0
 10 13  1  0
 10 14  1  1
 11 15  1  0
 11 16  1  0
 11 17  1  0
 12 18  1  0
 13 18  1  0
 14 19  1  0
 19 20  1  0
 19 21  2  0
 20 22  2  0
 21 23  1  0
 22 23  1  0
 22 24  1  0
 24 25  1  0
 25 26  1  0
 25 27  1  0
 26 28  1  0
 27 29  1  0
 27 30  1  1
 28 31  1  0
 29 31  1  0
 29 32  1  1
 30 33  1  0
 32 33  1  0
 31 34  1  1
M  END
