mac-x0139-diamond-x0950_1_A
     RDKit          3D

 18 19  0  0  0  0  0  0  0  0999 V2000
   -2.2430   15.0140   -3.4150 C   0  0  0  0  0  0  0  0  0  0  0  0
   -1.1100   14.7880   -2.4960 N   0  0  0  0  0  0  0  0  0  0  0  0
    0.2030   14.6410   -3.1930 C   0  0  0  0  0  0  0  0  0  0  0  0
   -1.2700   14.8000   -1.0820 C   0  0  0  0  0  0  0  0  0  0  0  0
    0.3120   13.2250   -3.7890 C   0  0  2  0  0  0  0  0  0  0  0  0
   -2.5050   14.9450   -0.5300 C   0  0  0  0  0  0  0  0  0  0  0  0
   -0.1340   14.6970   -0.2610 N   0  0  0  0  0  0  0  0  0  0  0  0
    0.9620   12.3210   -2.7930 C   0  0  0  0  0  0  0  0  0  0  0  0
    1.1140   13.1020   -5.0810 C   0  0  0  0  0  0  0  0  0  0  0  0
   -2.6240   14.9650    0.9410 C   0  0  0  0  0  0  0  0  0  0  0  0
   -0.3240   14.6930    1.0360 C   0  0  0  0  0  0  0  0  0  0  0  0
   -3.8510   15.1220   -0.9690 C   0  0  0  0  0  0  0  0  0  0  0  0
    1.8010   12.6910   -1.9970 O   0  0  0  0  0  0  0  0  0  0  0  0
    0.5440   11.0420   -2.8620 O   0  0  0  0  0  0  0  0  0  0  0  0
    0.8590   11.8510   -5.7150 O   0  0  0  0  0  0  0  0  0  0  0  0
   -1.5150   14.7580    1.6690 N   0  0  0  0  0  0  0  0  0  0  0  0
   -3.8370   15.1890    1.3290 N   0  0  0  0  0  0  0  0  0  0  0  0
   -4.5620   15.2740    0.1550 C   0  0  0  0  0  0  0  0  0  0  0  0
  1  2  1  0
  2  3  1  0
  2  4  1  0
  5  3  1  1
  4  6  2  0
  4  7  1  0
  5  8  1  0
  5  9  1  0
  6 10  1  0
  7 11  2  0
  6 12  1  0
  8 13  2  0
  8 14  1  0
  9 15  1  0
 10 16  1  0
 11 16  1  0
 10 17  2  0
 12 18  2  0
 17 18  1  0
M  END
