mac-x0587-mac-x0394
     RDKit          3D

 22 24  0  0  0  0  0  0  0  0999 V2000
    0.6210   15.1600   -3.0420 C   0  0  0  0  0  0  0  0  0  0  0  0
   -0.6560   14.3470   -2.8090 C   0  0  2  0  0  0  0  0  0  0  0  0
   -0.9320   13.2350   -4.1790 S   0  0  2  0  0  0  0  0  0  0  0  0
   -1.9120   15.2550   -2.6620 C   0  0  1  0  0  0  0  0  0  0  0  0
    0.3990   12.0710   -4.2780 C   0  0  0  0  0  0  0  0  0  0  0  0
   -2.6660   15.3720   -3.9050 N   0  0  0  0  0  0  0  0  0  0  0  0
   -2.7260   14.8230   -1.6010 N   0  0  0  0  0  0  0  0  0  0  0  0
   -0.8340   14.4810   -5.3530 C   0  0  2  0  0  0  0  0  0  0  0  0
    0.7620   11.5470   -2.9180 C   0  0  0  0  0  0  0  0  0  0  0  0
   -4.1310   15.1310   -1.4470 C   0  0  0  0  0  0  0  0  0  0  0  0
   -2.0920   14.8030   -0.3740 C   0  0  0  0  0  0  0  0  0  0  0  0
    0.5950   14.7970   -5.5110 C   0  0  0  0  0  0  0  0  0  0  0  0
   -1.4870   15.6910   -4.6750 C   0  0  1  0  0  0  0  0  0  0  0  0
    0.4970   10.4080   -2.5400 O   0  0  0  0  0  0  0  0  0  0  0  0
    1.4200   12.4430   -2.1530 O   0  0  0  0  0  0  0  0  0  0  0  0
   -0.8890   14.8130   -0.1810 O   0  0  0  0  0  0  0  0  0  0  0  0
   -4.2810   15.3060    0.0600 C   0  0  0  0  0  0  0  0  0  0  0  0
   -3.0620   14.7740    0.5980 N   0  0  0  0  0  0  0  0  0  0  0  0
   -1.4200   16.9920   -5.4330 C   0  0  0  0  0  0  0  0  0  0  0  0
    0.9820   16.0790   -5.5790 C   0  0  0  0  0  0  0  0  0  0  0  0
    0.0830   17.2860   -5.5320 C   0  0  2  0  0  0  0  0  0  0  0  0
    0.6310   18.1650   -4.0980 Cl  0  0  0  0  0  0  0  0  0  0  0  0
  2  1  1  6
  2  3  1  0
  2  4  1  0
  3  5  1  6
  4  6  1  0
  4  7  1  1
  3  8  1  0
  5  9  1  0
  7 10  1  0
  7 11  1  0
  8 12  1  1
  6 13  1  0
  8 13  1  0
  9 14  2  0
  9 15  1  0
 11 16  2  0
 10 17  1  0
 11 18  1  0
 17 18  1  0
 13 19  1  6
 12 20  2  0
 19 21  1  0
 20 21  1  0
 21 22  1  1
M  END
