mac-x0116-mac-x0396
     RDKit          3D

 24 27  0  0  0  0  0  0  0  0999 V2000
   -4.7060   14.0790    1.9260 C   0  0  0  0  0  0  0  0  0  0  0  0
   -4.2870   14.9490    0.8250 N   0  0  0  0  0  0  0  0  0  0  0  0
   -5.1020   15.4580   -0.0990 C   0  0  0  0  0  0  0  0  0  0  0  0
   -5.6440   12.9400    1.6860 C   0  0  0  0  0  0  0  0  0  0  0  0
   -5.7500   12.4260    0.4240 O   0  0  0  0  0  0  0  0  0  0  0  0
   -6.4800   12.2410    2.5350 C   0  0  0  0  0  0  0  0  0  0  0  0
   -3.2310   14.7350    0.0480 C   0  0  0  0  0  0  0  0  0  0  0  0
   -4.7310   16.2250   -0.9720 O   0  0  0  0  0  0  0  0  0  0  0  0
   -7.1220   11.2590    1.7650 C   0  0  0  0  0  0  0  0  0  0  0  0
   -6.6470   11.4070    0.4860 C   0  0  0  0  0  0  0  0  0  0  0  0
   -3.4840   14.6970   -1.3070 N   0  0  0  0  0  0  0  0  0  0  0  0
   -2.0120   14.5840    0.4300 C   0  0  0  0  0  0  0  0  0  0  0  0
   -6.4230   15.0390   -0.1150 C   0  0  0  0  0  0  0  0  0  0  0  0
   -2.5360   14.5580   -2.2320 C   0  0  0  0  0  0  0  0  0  0  0  0
   -1.0110   14.4340   -0.6170 C   0  0  0  0  0  0  0  0  0  0  0  0
   -1.4140   14.5500    1.6330 N   0  0  0  0  0  0  0  0  0  0  0  0
   -7.0880   15.0240   -1.3040 C   0  0  0  0  0  0  0  0  0  0  0  0
   -7.0180   14.6560    1.0660 C   0  0  0  0  0  0  0  0  0  0  0  0
   -1.2880   14.4190   -1.9570 N   0  0  0  0  0  0  0  0  0  0  0  0
    0.1430   14.3530   -0.0650 N   0  0  0  0  0  0  0  0  0  0  0  0
   -0.1820   14.4310    1.2940 C   0  0  0  0  0  0  0  0  0  0  0  0
   -8.3650   14.6360   -1.3880 N   0  0  0  0  0  0  0  0  0  0  0  0
   -8.3190   14.2530    1.0160 C   0  0  0  0  0  0  0  0  0  0  0  0
   -8.9450   14.2610   -0.2210 C   0  0  0  0  0  0  0  0  0  0  0  0
  1  2  1  0
  2  3  1  0
  1  4  1  0
  4  5  1  0
  4  6  2  0
  2  7  1  0
  3  8  2  0
  6  9  1  0
  5 10  1  0
  9 10  2  0
  7 11  1  0
  7 12  2  0
  3 13  1  0
 11 14  1  0
 12 15  1  0
 12 16  1  0
 13 17  2  0
 13 18  1  0
 14 19  2  0
 15 19  1  0
 15 20  2  0
 16 21  2  0
 20 21  1  0
 17 22  1  0
 18 23  2  0
 22 24  2  0
 23 24  1  0
M  END
