mac-x0124-diamond-x0905_0_A
     RDKit          3D

 17 19  0  0  0  0  0  0  0  0999 V2000
    0.8800   14.7550   -2.9540 C   0  0  0  0  0  0  0  0  0  0  0  0
   -0.4200   14.7790   -2.3480 N   0  0  0  0  0  0  0  0  0  0  0  0
   -1.5980   14.8460   -3.0440 C   0  0  0  0  0  0  0  0  0  0  0  0
   -0.6640   14.7390   -0.9870 C   0  0  0  0  0  0  0  0  0  0  0  0
   -2.5940   14.8560   -2.1230 C   0  0  0  0  0  0  0  0  0  0  0  0
   -2.0020   14.7940   -0.8250 C   0  0  0  0  0  0  0  0  0  0  0  0
    0.2150   14.6640    0.0120 N   0  0  0  0  0  0  0  0  0  0  0  0
   -2.5230   14.7880    0.4420 C   0  0  0  0  0  0  0  0  0  0  0  0
   -0.3850   14.6490    1.2380 C   0  0  0  0  0  0  0  0  0  0  0  0
   -1.7150   14.7070    1.5500 N   0  0  0  0  0  0  0  0  0  0  0  0
   -3.9330   14.8900    0.1880 C   0  0  0  0  0  0  0  0  0  0  0  0
   -5.0500   14.6290    0.8910 N   0  0  0  0  0  0  0  0  0  0  0  0
   -3.9750   15.3480   -1.1080 C   0  0  0  0  0  0  0  0  0  0  0  0
   -5.1240   15.5550   -1.7710 C   0  0  0  0  0  0  0  0  0  0  0  0
   -6.1810   14.8560    0.1700 C   0  0  0  0  0  0  0  0  0  0  0  0
   -7.3280   14.6020    0.8220 O   0  0  0  0  0  0  0  0  0  0  0  0
   -6.2780   15.3050   -1.1250 C   0  0  0  0  0  0  0  0  0  0  0  0
  1  2  1  0
  2  3  1  0
  2  4  1  0
  3  5  2  0
  4  6  2  0
  5  6  1  0
  4  7  1  0
  6  8  1  0
  7  9  2  0
  8 10  2  0
  9 10  1  0
  8 11  1  0
 11 12  2  0
 11 13  1  0
 13 14  2  0
 12 15  1  0
 15 16  1  0
 14 17  1  0
 15 17  2  0
M  END
