mac-x0344-mac-x0357
     RDKit          3D

 20 21  0  0  0  0  0  0  0  0999 V2000
    1.4350   13.3760   -4.3170 O   0  0  0  0  0  0  0  0  0  0  0  0
    1.0330   12.7720   -3.1170 C   0  0  0  0  0  0  0  0  0  0  0  0
    2.1670   12.6440   -2.2940 O   0  0  0  0  0  0  0  0  0  0  0  0
    0.4830   12.9010   -5.1160 C   0  0  0  0  0  0  0  0  0  0  0  0
    0.3810   11.3020   -3.3430 C   0  0  0  0  0  0  0  0  0  0  0  0
    0.1550   13.6140   -2.3630 O   0  0  0  0  0  0  0  0  0  0  0  0
   -0.8210   13.0380   -4.6680 C   0  0  0  0  0  0  0  0  0  0  0  0
    0.7620   12.2810   -6.3250 C   0  0  0  0  0  0  0  0  0  0  0  0
    0.1380   10.5770   -2.3620 O   0  0  0  0  0  0  0  0  0  0  0  0
    0.1950   10.9980   -4.7060 N   0  0  0  0  0  0  0  0  0  0  0  0
    2.0480   12.1600   -6.7350 O   0  0  0  0  0  0  0  0  0  0  0  0
   -1.8650   12.5490   -5.4230 C   0  0  0  0  0  0  0  0  0  0  0  0
   -0.2830   11.7910   -7.0960 C   0  0  0  0  0  0  0  0  0  0  0  0
   -0.7810   10.2560   -5.4320 C   0  0  0  0  0  0  0  0  0  0  0  0
   -1.6000   11.9240   -6.6390 C   0  0  0  0  0  0  0  0  0  0  0  0
   -0.3810    9.7570   -6.6960 C   0  0  0  0  0  0  0  0  0  0  0  0
   -2.0810    9.9900   -5.0070 C   0  0  0  0  0  0  0  0  0  0  0  0
   -1.2530    9.0220   -7.5000 C   0  0  0  0  0  0  0  0  0  0  0  0
   -2.9550    9.2500   -5.8180 C   0  0  0  0  0  0  0  0  0  0  0  0
   -2.5440    8.7690   -7.0570 C   0  0  0  0  0  0  0  0  0  0  0  0
  2  1  1  0
  2  3  1  0
  1  4  1  0
  2  5  1  0
  2  6  1  0
  4  7  2  0
  4  8  1  0
  5  9  2  0
  5 10  1  0
  8 11  1  0
  7 12  1  0
  8 13  2  0
 10 14  1  0
 12 15  2  0
 13 15  1  0
 14 16  2  0
 14 17  1  0
 16 18  1  0
 17 19  2  0
 18 20  2  0
 19 20  1  0
M  END
