mac-x0137-mac-x0123
     RDKit          3D

 25 29  0  0  0  0  0  0  0  0999 V2000
   -2.7530   12.7540   -4.1560 F   0  0  0  0  0  0  0  0  0  0  0  0
   -1.6700   13.4910   -4.5390 C   0  0  2  0  0  0  0  0  0  0  0  0
   -0.5330   12.5180   -4.9070 C   0  0  0  0  0  0  0  0  0  0  0  0
   -1.3180   14.4610   -3.4070 C   0  0  0  0  0  0  0  0  0  0  0  0
   -0.8450   13.6290   -2.2960 N   0  0  0  0  0  0  0  0  0  0  0  0
    0.2930   12.0110   -3.7140 C   0  0  0  0  0  0  0  0  0  0  0  0
    0.4530   13.0200   -2.5680 C   0  0  0  0  0  0  0  0  0  0  0  0
   -1.0270   14.1490   -1.0030 C   0  0  0  0  0  0  0  0  0  0  0  0
   -0.0450   14.1160   -0.1070 N   0  0  0  0  0  0  0  0  0  0  0  0
   -2.2280   14.6850   -0.6720 C   0  0  0  0  0  0  0  0  0  0  0  0
   -0.3280   14.6310    1.1130 C   0  0  0  0  0  0  0  0  0  0  0  0
   -2.4200   15.2130    0.5850 C   0  0  0  0  0  0  0  0  0  0  0  0
   -3.4450   14.8140   -1.4640 C   0  0  0  0  0  0  0  0  0  0  0  0
   -1.4800   15.1850    1.5200 N   0  0  0  0  0  0  0  0  0  0  0  0
   -3.7280   15.7910    0.7230 N   0  0  0  0  0  0  0  0  0  0  0  0
   -4.4820   15.0730   -0.3540 C   0  0  2  0  0  0  0  0  0  0  0  0
   -5.0490   13.8670    0.4480 C   0  0  1  0  0  0  0  0  0  0  0  0
   -5.6550   15.7800   -1.0820 C   0  0  0  0  0  0  0  0  0  0  0  0
   -3.9950   13.3520    1.3300 N   0  0  0  0  0  0  0  0  0  0  0  0
   -6.9010   14.9750   -1.1220 N   0  0  0  0  0  0  0  0  0  0  0  0
   -6.2880   14.4110    1.1980 C   0  0  1  0  0  0  0  0  0  0  0  0
   -7.4100   14.7330    0.2150 C   0  0  2  0  0  0  0  0  0  0  0  0
   -6.9630   13.6530    2.3430 C   0  0  0  0  0  0  0  0  0  0  0  0
   -8.3740   13.5830    0.3940 C   0  0  0  0  0  0  0  0  0  0  0  0
   -8.4140   13.4710    1.9120 C   0  0  0  0  0  0  0  0  0  0  0  0
  2  1  1  1
  2  3  1  0
  2  4  1  0
  4  5  1  0
  3  6  1  0
  5  7  1  0
  6  7  1  0
  5  8  1  0
  8  9  2  0
  8 10  1  0
  9 11  1  0
 10 12  2  0
 10 13  1  0
 11 14  2  0
 12 14  1  0
 12 15  1  0
 16 13  1  6
 16 15  1  0
 16 17  1  0
 16 18  1  0
 17 19  1  1
 18 20  1  0
 17 21  1  0
 20 22  1  0
 21 22  1  0
 21 23  1  1
 22 24  1  6
 23 25  1  0
 24 25  1  0
M  END
