mac-x0303-mac-x0358
     RDKit          3D

 25 27  0  0  0  0  0  0  0  0999 V2000
   -8.2440   12.9580    2.6530 N   0  0  0  0  0  0  0  0  0  0  0  0
   -8.3650   14.5200    2.0080 S   0  0  0  0  0  0  0  0  0  0  0  0
   -8.1340   15.4060    3.1220 O   0  0  0  0  0  0  0  0  0  0  0  0
   -9.5940   14.5200    1.2520 O   0  0  0  0  0  0  0  0  0  0  0  0
   -7.0300   14.7110    0.8590 C   0  0  0  0  0  0  0  0  0  0  0  0
   -7.2520   14.7630   -0.4930 N   0  0  0  0  0  0  0  0  0  0  0  0
   -5.7320   14.8290    1.1140 N   0  0  0  0  0  0  0  0  0  0  0  0
   -6.0530   14.9180   -1.1340 C   0  0  0  0  0  0  0  0  0  0  0  0
   -5.1180   14.9590   -0.1130 C   0  0  0  0  0  0  0  0  0  0  0  0
   -5.7340   15.0190   -2.4950 C   0  0  0  0  0  0  0  0  0  0  0  0
   -3.7660   15.1160   -0.4500 C   0  0  0  0  0  0  0  0  0  0  0  0
   -4.3820   15.1670   -2.8580 C   0  0  0  0  0  0  0  0  0  0  0  0
   -3.4140   15.2180   -1.8200 C   0  0  0  0  0  0  0  0  0  0  0  0
   -3.9880   15.2650   -4.3710 C   0  0  0  0  0  0  0  0  0  0  0  0
   -2.7440   14.5310   -4.6350 C   0  0  0  0  0  0  0  0  0  0  0  0
   -2.6900   13.2160   -5.1040 C   0  0  0  0  0  0  0  0  0  0  0  0
   -1.5930   15.2320   -4.3470 C   0  0  0  0  0  0  0  0  0  0  0  0
   -1.4430   12.6130   -5.2160 C   0  0  0  0  0  0  0  0  0  0  0  0
   -0.3700   14.6400   -4.4650 C   0  0  0  0  0  0  0  0  0  0  0  0
   -1.3330   11.3160   -5.6290 O   0  0  0  0  0  0  0  0  0  0  0  0
   -0.2860   13.3240   -4.8760 C   0  0  0  0  0  0  0  0  0  0  0  0
    1.0530   12.6960   -4.9030 C   0  0  0  0  0  0  0  0  0  0  0  0
    1.1790   12.1320   -3.4970 C   0  0  0  0  0  0  0  0  0  0  0  0
    1.9340   12.8930   -2.6750 O   0  0  0  0  0  0  0  0  0  0  0  0
    0.6660   11.1200   -3.0500 O   0  0  0  0  0  0  0  0  0  0  0  0
  2  1  1  0
  2  3  2  0
  2  4  2  0
  2  5  1  0
  5  6  1  0
  5  7  2  0
  6  8  1  0
  7  9  1  0
  8  9  2  0
  8 10  1  0
  9 11  1  0
 10 12  2  0
 11 13  2  0
 12 13  1  0
 12 14  1  0
 14 15  1  0
 15 16  2  0
 15 17  1  0
 16 18  1  0
 17 19  2  0
 18 20  1  0
 18 21  2  0
 19 21  1  0
 21 22  1  0
 22 23  1  0
 23 24  1  0
 23 25  2  0
M  END
