mac-x0379-diamond-x0685_1_A
     RDKit          3D

 23 24  0  0  0  0  0  0  0  0999 V2000
   -5.2130   14.9800    0.3370 C   0  0  0  0  0  0  0  0  0  0  0  0
   -4.3060   14.9910   -0.8410 C   0  0  0  0  0  0  0  0  0  0  0  0
   -4.7050   15.1670   -2.0770 N   0  0  0  0  0  0  0  0  0  0  0  0
   -2.6160   14.7610   -0.6300 S   0  0  0  0  0  0  0  0  0  0  0  0
   -3.6160   15.1300   -2.9240 C   0  0  0  0  0  0  0  0  0  0  0  0
   -2.3900   14.9240   -2.3240 C   0  0  0  0  0  0  0  0  0  0  0  0
   -1.0870   14.8550   -2.9540 C   0  0  0  0  0  0  0  0  0  0  0  0
   -0.9000   14.5730   -4.1280 O   0  0  0  0  0  0  0  0  0  0  0  0
   -0.0850   15.1940   -2.0770 O   0  0  0  0  0  0  0  0  0  0  0  0
    0.4920   14.1830   -1.2260 C   0  0  0  0  0  0  0  0  0  0  0  0
   -0.0010   12.8730   -1.4960 O   0  0  0  0  0  0  0  0  0  0  0  0
    0.6930   11.9760   -2.6420 S   0  0  0  0  0  0  0  0  0  0  0  0
    0.0250   12.4250   -4.2400 C   0  0  0  0  0  0  0  0  0  0  0  0
    2.2500   12.3230   -2.8020 O   0  0  0  0  0  0  0  0  0  0  0  0
    0.4530   10.3900   -2.4620 O   0  0  0  0  0  0  0  0  0  0  0  0
   -1.4120   11.9550   -4.4480 C   0  0  0  0  0  0  0  0  0  0  0  0
   -1.4450   10.5510   -4.9180 N   0  0  0  0  0  0  0  0  0  0  0  0
   -0.8000   10.3690   -6.2350 C   0  0  0  0  0  0  0  0  0  0  0  0
   -0.6030    8.8590   -6.4720 C   0  0  0  0  0  0  0  0  0  0  0  0
   -1.6120   10.9600   -7.4000 C   0  0  0  0  0  0  0  0  0  0  0  0
    0.0860    8.5810   -7.8050 C   0  0  0  0  0  0  0  0  0  0  0  0
   -0.9900   10.6700   -8.7650 C   0  0  0  0  0  0  0  0  0  0  0  0
   -0.7130    9.1800   -8.9600 C   0  0  0  0  0  0  0  0  0  0  0  0
  1  2  1  0
  2  3  2  0
  2  4  1  0
  3  5  1  0
  4  6  1  0
  5  6  2  0
  6  7  1  0
  7  8  2  0
  7  9  1  0
  9 10  1  0
 10 11  1  0
 12 11  1  0
 12 13  1  0
 12 14  1  0
 12 15  1  0
 13 16  1  0
 16 17  1  0
 17 18  1  0
 18 19  1  0
 18 20  1  0
 19 21  1  0
 20 22  1  0
 21 23  1  0
 22 23  1  0
M  END
