mac-x0564-diamond-x0900_1_A
     RDKit          3D

 23 26  0  0  0  0  0  0  0  0999 V2000
    0.8740   14.3460   -1.1510 O   0  0  0  0  0  0  0  0  0  0  0  0
    0.0440   14.2760   -2.0440 C   0  0  0  0  0  0  0  0  0  0  0  0
    0.3770   13.8980   -3.3430 N   0  0  0  0  0  0  0  0  0  0  0  0
   -1.3620   14.5550   -1.8900 C   0  0  0  0  0  0  0  0  0  0  0  0
   -2.2340   14.6460   -2.9330 C   0  0  0  0  0  0  0  0  0  0  0  0
   -0.5020   14.0080   -4.2950 C   0  0  0  0  0  0  0  0  0  0  0  0
   -2.0100   14.7590   -0.7060 O   0  0  0  0  0  0  0  0  0  0  0  0
   -0.0890   13.5660   -5.6850 C   0  0  0  0  0  0  0  0  0  0  0  0
   -1.7980   14.4810   -4.1890 N   0  0  0  0  0  0  0  0  0  0  0  0
   -3.3270   14.9810   -1.0370 C   0  0  0  0  0  0  0  0  0  0  0  0
   -3.5060   14.9150   -2.4180 C   0  0  0  0  0  0  0  0  0  0  0  0
    0.1210   12.0690   -5.8340 C   0  0  0  0  0  0  0  0  0  0  0  0
   -4.7840   15.1100   -2.9480 C   0  0  0  0  0  0  0  0  0  0  0  0
   -4.3610   15.2350   -0.1400 C   0  0  0  0  0  0  0  0  0  0  0  0
   -0.8870   11.3590   -6.7570 C   0  0  0  0  0  0  0  0  0  0  0  0
   -5.8400   15.3660   -2.0720 C   0  0  0  0  0  0  0  0  0  0  0  0
   -5.6310   15.4250   -0.6980 C   0  0  0  0  0  0  0  0  0  0  0  0
   -0.4450    9.9580   -7.1430 C   0  0  2  0  0  0  0  0  0  0  0  0
   -0.7070    9.4970   -8.5500 C   0  0  0  0  0  0  0  0  0  0  0  0
   -1.0400    8.7800   -6.3850 C   0  0  0  0  0  0  0  0  0  0  0  0
   -1.1070   10.1170   -9.5170 O   0  0  0  0  0  0  0  0  0  0  0  0
   -0.3750    8.1600   -8.5050 N   0  0  0  0  0  0  0  0  0  0  0  0
   -0.3650    7.6620   -7.1490 C   0  0  0  0  0  0  0  0  0  0  0  0
  1  2  2  0
  2  3  1  0
  2  4  1  0
  4  5  2  0
  3  6  2  0
  4  7  1  0
  6  8  1  0
  5  9  1  0
  6  9  1  0
  7 10  1  0
  5 11  1  0
 10 11  2  0
  8 12  1  0
 11 13  1  0
 10 14  1  0
 12 15  1  0
 13 16  2  0
 14 17  2  0
 16 17  1  0
 18 15  1  1
 18 19  1  0
 18 20  1  0
 19 21  2  0
 19 22  1  0
 20 23  1  0
 22 23  1  0
M  END
