mac-x0387-mac-x0360
     RDKit          3D

 22 24  0  0  0  0  0  0  0  0999 V2000
   -3.7750   14.9210    1.1330 N   0  0  0  0  0  0  0  0  0  0  0  0
   -4.7540   14.9500   -0.0210 S   0  0  2  0  0  0  0  0  0  0  0  0
   -3.8050   15.4460   -1.3000 N   0  0  0  0  0  0  0  0  0  0  0  0
   -2.4100   14.7250    0.7020 C   0  0  0  0  0  0  0  0  0  0  0  0
   -5.8680   15.8010   -0.2710 O   0  0  0  0  0  0  0  0  0  0  0  0
   -2.0950   14.6870   -0.6780 C   0  0  0  0  0  0  0  0  0  0  0  0
   -1.5270   14.5930    1.7140 N   0  0  0  0  0  0  0  0  0  0  0  0
   -5.3230   13.3080   -0.2840 C   0  0  0  0  0  0  0  0  0  0  0  0
   -0.7490   14.5160   -1.0050 C   0  0  0  0  0  0  0  0  0  0  0  0
   -0.2510   14.4310    1.3420 C   0  0  0  0  0  0  0  0  0  0  0  0
   -3.0190   14.8130   -1.7570 C   0  0  0  0  0  0  0  0  0  0  0  0
   -4.8680   12.5020   -1.3360 C   0  0  0  0  0  0  0  0  0  0  0  0
   -6.2720   12.8510    0.6220 C   0  0  0  0  0  0  0  0  0  0  0  0
    0.1760   14.3890    0.0210 C   0  0  0  0  0  0  0  0  0  0  0  0
   -0.3460   14.4760   -2.3480 C   0  0  0  0  0  0  0  0  0  0  0  0
   -2.6120   14.7710   -3.0870 C   0  0  0  0  0  0  0  0  0  0  0  0
   -5.3990   11.2200   -1.4630 C   0  0  0  0  0  0  0  0  0  0  0  0
   -6.7850   11.5790    0.4760 C   0  0  0  0  0  0  0  0  0  0  0  0
   -7.9620   11.0190    1.5990 Cl  0  0  0  0  0  0  0  0  0  0  0  0
   -4.8820   10.1840   -2.7370 Cl  0  0  0  0  0  0  0  0  0  0  0  0
   -1.2720   14.6030   -3.3840 C   0  0  0  0  0  0  0  0  0  0  0  0
   -6.3600   10.7580   -0.5620 C   0  0  0  0  0  0  0  0  0  0  0  0
  1  2  2  0
  2  3  1  6
  1  4  1  0
  2  5  2  0
  4  6  1  0
  4  7  2  0
  2  8  1  0
  6  9  2  0
  7 10  1  0
  6 11  1  0
  8 12  2  0
  8 13  1  0
  9 14  1  0
 10 14  2  0
  9 15  1  0
 11 16  2  0
 12 17  1  0
 13 18  2  0
 18 19  1  0
 17 20  1  0
 15 21  2  0
 16 21  1  0
 17 22  2  0
 18 22  1  0
M  END
