mac-x0555-mac-x0348
     RDKit          3D

 28 31  0  0  0  0  0  0  0  0999 V2000
   -7.3480   14.3600    2.8160 N   0  0  0  0  0  0  0  0  0  0  0  0
   -6.8390   14.5660    1.5330 C   0  0  0  0  0  0  0  0  0  0  0  0
   -7.6110   14.5250    0.3800 C   0  0  0  0  0  0  0  0  0  0  0  0
   -5.4830   14.8330    1.3670 C   0  0  0  0  0  0  0  0  0  0  0  0
   -4.9390   15.0430    0.1010 C   0  0  0  0  0  0  0  0  0  0  0  0
   -7.1270   14.7270   -0.8710 N   0  0  0  0  0  0  0  0  0  0  0  0
   -5.8090   14.9800   -1.0000 C   0  0  0  0  0  0  0  0  0  0  0  0
   -3.5670   15.3070   -0.0680 C   0  0  0  0  0  0  0  0  0  0  0  0
   -5.2640   15.1900   -2.2540 C   0  0  0  0  0  0  0  0  0  0  0  0
   -3.0250   15.5130   -1.3410 C   0  0  0  0  0  0  0  0  0  0  0  0
   -1.5430   15.7970   -1.5350 C   0  0  0  0  0  0  0  0  0  0  0  0
   -3.8990   15.4510   -2.4340 C   0  0  0  0  0  0  0  0  0  0  0  0
   -0.5950   14.5870   -1.7380 C   0  0  0  0  0  0  0  0  0  0  0  0
   -0.2100   14.3110   -3.2210 C   0  0  2  0  0  0  0  0  0  0  0  0
    0.9390   13.3320   -3.4050 C   0  0  0  0  0  0  0  0  0  0  0  0
   -0.1640   15.5210   -4.0840 C   0  0  0  0  0  0  0  0  0  0  0  0
    0.7290   12.2170   -2.4340 C   0  0  0  0  0  0  0  0  0  0  0  0
    0.8220   16.4460   -4.3540 C   0  0  0  0  0  0  0  0  0  0  0  0
   -1.2950   15.8910   -4.8070 C   0  0  0  0  0  0  0  0  0  0  0  0
    0.6780   12.4330   -1.2380 O   0  0  0  0  0  0  0  0  0  0  0  0
    0.5650   10.9950   -2.9740 O   0  0  0  0  0  0  0  0  0  0  0  0
    0.2990   17.3650   -5.2210 N   0  0  0  0  0  0  0  0  0  0  0  0
   -0.9960   17.0490   -5.5010 C   0  0  0  0  0  0  0  0  0  0  0  0
   -2.5590   15.3020   -4.9040 C   0  0  0  0  0  0  0  0  0  0  0  0
    0.9980   18.4980   -5.7610 C   0  0  0  0  0  0  0  0  0  0  0  0
   -3.4970   15.9040   -5.6990 C   0  0  0  0  0  0  0  0  0  0  0  0
   -1.9280   17.6680   -6.2940 C   0  0  0  0  0  0  0  0  0  0  0  0
   -3.1610   17.0660   -6.3640 C   0  0  0  0  0  0  0  0  0  0  0  0
  1  2  1  0
  2  3  2  0
  2  4  1  0
  4  5  2  0
  3  6  1  0
  5  7  1  0
  6  7  2  0
  5  8  1  0
  7  9  1  0
  8 10  2  0
 10 11  1  0
  9 12  2  0
 10 12  1  0
 11 13  1  0
 14 13  1  1
 14 15  1  0
 14 16  1  0
 15 17  1  0
 16 18  2  0
 16 19  1  0
 17 20  2  0
 17 21  1  0
 18 22  1  0
 19 23  2  0
 22 23  1  0
 19 24  1  0
 22 25  1  0
 24 26  2  0
 23 27  1  0
 26 28  1  0
 27 28  2  0
M  END
