mac-x0387-mac-x0182
     RDKit          3D

 24 27  0  0  0  0  0  0  0  0999 V2000
   -3.7560   15.4450    1.7640 N   0  0  0  0  0  0  0  0  0  0  0  0
   -2.5910   15.0130    1.1170 C   0  0  0  0  0  0  0  0  0  0  0  0
   -1.5220   14.8550    1.9000 N   0  0  0  0  0  0  0  0  0  0  0  0
   -2.5660   14.7640   -0.2570 C   0  0  0  0  0  0  0  0  0  0  0  0
   -1.3460   14.3270   -0.8180 C   0  0  0  0  0  0  0  0  0  0  0  0
   -0.3740   14.4490    1.3460 C   0  0  0  0  0  0  0  0  0  0  0  0
   -3.6890   14.9260   -1.0870 C   0  0  0  0  0  0  0  0  0  0  0  0
   -0.2290   14.1760    0.0040 C   0  0  0  0  0  0  0  0  0  0  0  0
   -1.2820   14.0460   -2.1940 C   0  0  0  0  0  0  0  0  0  0  0  0
   -3.6140   14.6410   -2.4450 C   0  0  0  0  0  0  0  0  0  0  0  0
   -2.4180   14.1900   -3.0080 C   0  0  0  0  0  0  0  0  0  0  0  0
   -2.3860   13.8570   -4.4770 C   0  0  0  0  0  0  0  0  0  0  0  0
   -1.1950   13.0920   -4.8750 N   0  0  0  0  0  0  0  0  0  0  0  0
   -0.8230   11.6490   -4.4950 S   0  0  2  0  0  0  0  0  0  0  0  0
   -0.6770   10.9890   -3.2130 O   0  0  0  0  0  0  0  0  0  0  0  0
    0.7500   11.8340   -5.0160 N   0  0  0  0  0  0  0  0  0  0  0  0
   -1.2250   10.4840   -5.7270 C   0  0  0  0  0  0  0  0  0  0  0  0
    0.8300   11.4810   -6.3320 C   0  0  0  0  0  0  0  0  0  0  0  0
   -0.2230   10.5090   -6.6810 C   0  0  0  0  0  0  0  0  0  0  0  0
   -2.3170    9.6430   -5.8230 C   0  0  0  0  0  0  0  0  0  0  0  0
    1.6590   11.8600   -7.1030 O   0  0  0  0  0  0  0  0  0  0  0  0
   -2.3810    8.8040   -6.9420 C   0  0  0  0  0  0  0  0  0  0  0  0
   -0.2700    9.6890   -7.7950 C   0  0  0  0  0  0  0  0  0  0  0  0
   -1.3670    8.8270   -7.9220 C   0  0  0  0  0  0  0  0  0  0  0  0
  1  2  1  0
  2  3  2  0
  2  4  1  0
  4  5  2  0
  3  6  1  0
  4  7  1  0
  5  8  1  0
  6  8  2  0
  5  9  1  0
  7 10  2  0
  9 11  2  0
 10 11  1  0
 11 12  1  0
 12 13  1  0
 13 14  2  0
 14 15  2  0
 14 16  1  6
 14 17  1  0
 16 18  1  0
 17 19  2  0
 18 19  1  0
 17 20  1  0
 18 21  2  0
 20 22  2  0
 19 23  1  0
 22 24  1  0
 23 24  2  0
M  END
