mac-x0139-mac-x0341
     RDKit          3D

 22 24  0  0  0  0  0  0  0  0999 V2000
   -2.6340   15.1860   -3.2920 C   0  0  0  0  0  0  0  0  0  0  0  0
   -1.5070   14.6580   -2.5230 N   0  0  0  0  0  0  0  0  0  0  0  0
   -0.1890   14.7780   -3.1960 C   0  0  0  0  0  0  0  0  0  0  0  0
   -1.5200   14.7870   -1.1450 C   0  0  0  0  0  0  0  0  0  0  0  0
    0.1520   13.4580   -3.8900 C   0  0  0  0  0  0  0  0  0  0  0  0
   -2.7210   14.8570   -0.2640 C   0  0  0  0  0  0  0  0  0  0  0  0
   -0.3490   14.8590   -0.5730 N   0  0  0  0  0  0  0  0  0  0  0  0
    0.9120   12.5160   -2.9870 C   0  0  0  0  0  0  0  0  0  0  0  0
   -2.4250   14.9330    1.1580 C   0  0  0  0  0  0  0  0  0  0  0  0
   -0.2350   14.9630    0.7740 C   0  0  0  0  0  0  0  0  0  0  0  0
   -4.0990   14.9030   -0.2440 C   0  0  0  0  0  0  0  0  0  0  0  0
    1.7930   12.8360   -2.2170 O   0  0  0  0  0  0  0  0  0  0  0  0
    0.5110   11.2310   -3.1040 O   0  0  0  0  0  0  0  0  0  0  0  0
   -1.1850   14.9690    1.6080 N   0  0  0  0  0  0  0  0  0  0  0  0
   -3.3830   15.0050    1.9570 N   0  0  0  0  0  0  0  0  0  0  0  0
   -4.4420   14.9320    1.1640 C   0  0  0  0  0  0  0  0  0  0  0  0
   -5.3020   14.9180   -1.1130 C   0  0  0  0  0  0  0  0  0  0  0  0
   -5.2720   15.0740   -2.3250 O   0  0  0  0  0  0  0  0  0  0  0  0
   -6.5100   14.7590   -0.4480 N   0  0  0  0  0  0  0  0  0  0  0  0
   -5.5840   14.8600    1.6720 N   0  0  0  0  0  0  0  0  0  0  0  0
   -6.6050   14.7360    0.8400 C   0  0  0  0  0  0  0  0  0  0  0  0
   -7.8020   14.5800    1.4520 N   0  0  0  0  0  0  0  0  0  0  0  0
  1  2  1  0
  2  3  1  0
  2  4  1  0
  3  5  1  0
  4  6  1  0
  4  7  2  0
  5  8  1  0
  6  9  1  0
  7 10  1  0
  6 11  2  0
  8 12  2  0
  8 13  1  0
  9 14  1  0
 10 14  2  0
  9 15  2  0
 11 16  1  0
 15 16  1  0
 11 17  1  0
 17 18  2  0
 17 19  1  0
 16 20  2  0
 19 21  2  0
 20 21  1  0
 21 22  1  0
M  END
