mac-x0436-diamond-x0438_0_A
     RDKit          3D

 32 35  0  0  0  0  0  0  0  0999 V2000
    0.5430   11.2720   -3.1740 O   0  0  0  0  0  0  0  0  0  0  0  0
    1.2270   12.4160   -2.9840 C   0  0  0  0  0  0  0  0  0  0  0  0
    1.3600   12.8920   -1.8730 O   0  0  0  0  0  0  0  0  0  0  0  0
    1.7730   12.9840   -4.2780 C   0  0  0  0  0  0  0  0  0  0  0  0
    0.7390   13.2750   -5.3670 C   0  0  0  0  0  0  0  0  0  0  0  0
   -0.1900   12.1170   -5.6430 C   0  0  0  0  0  0  0  0  0  0  0  0
   -1.5690   12.0650   -4.9630 C   0  0  0  0  0  0  0  0  0  0  0  0
    0.2090   11.2050   -6.4730 N   0  0  0  0  0  0  0  0  0  0  0  0
   -2.0170   13.0760   -4.2690 N   0  0  0  0  0  0  0  0  0  0  0  0
   -2.3090   10.8900   -5.1410 N   0  0  0  0  0  0  0  0  0  0  0  0
   -0.6250   10.1230   -6.7660 C   0  0  0  0  0  0  0  0  0  0  0  0
   -3.2190   13.4020   -3.5320 C   0  0  0  0  0  0  0  0  0  0  0  0
   -1.8710    9.9450   -6.1220 C   0  0  0  0  0  0  0  0  0  0  0  0
   -0.1850    9.2080   -7.7300 C   0  0  0  0  0  0  0  0  0  0  0  0
   -3.0760   14.8260   -2.9060 C   0  0  0  0  0  0  0  0  0  0  0  0
   -0.9710    8.1100   -8.0660 C   0  0  0  0  0  0  0  0  0  0  0  0
   -2.6510    8.8310   -6.4710 C   0  0  0  0  0  0  0  0  0  0  0  0
   -2.2010    7.9200   -7.4370 C   0  0  0  0  0  0  0  0  0  0  0  0
   -3.8050   14.8270   -1.5910 C   0  0  0  0  0  0  0  0  0  0  0  0
   -5.1780   14.6200   -1.6840 C   0  0  0  0  0  0  0  0  0  0  0  0
   -3.1870   14.9970   -0.3370 C   0  0  0  0  0  0  0  0  0  0  0  0
   -5.8890   14.5570   -0.5140 C   0  0  0  0  0  0  0  0  0  0  0  0
   -3.9500   14.9420    0.8490 C   0  0  0  0  0  0  0  0  0  0  0  0
   -7.2160   14.3380   -0.3060 N   0  0  0  0  0  0  0  0  0  0  0  0
   -5.3300   14.7050    0.7410 C   0  0  0  0  0  0  0  0  0  0  0  0
   -7.4360   14.3370    1.0410 C   0  0  0  0  0  0  0  0  0  0  0  0
   -6.3130   14.5730    1.6970 N   0  0  0  0  0  0  0  0  0  0  0  0
   -8.7880   14.0780    1.5900 C   0  0  0  0  0  0  0  0  0  0  0  0
   -9.3890   15.3970    2.6270 S   0  0  0  0  0  0  0  0  0  0  0  0
   -8.1770   15.5950    3.9230 C   0  0  0  0  0  0  0  0  0  0  0  0
  -10.6350   14.9500    3.2460 O   0  0  0  0  0  0  0  0  0  0  0  0
   -9.4200   16.5820    1.7960 O   0  0  0  0  0  0  0  0  0  0  0  0
  1  2  1  0
  2  3  2  0
  2  4  1  0
  4  5  1  0
  5  6  1  0
  6  7  1  0
  6  8  2  0
  7  9  2  3
  7 10  1  0
  8 11  1  0
  9 12  1  0
 10 13  1  0
 11 13  2  0
 11 14  1  0
 12 15  1  0
 14 16  2  0
 13 17  1  0
 16 18  1  0
 17 18  2  0
 15 19  1  0
 19 20  2  0
 19 21  1  0
 20 22  1  0
 21 23  2  0
 22 24  1  0
 22 25  2  0
 23 25  1  0
 24 26  1  0
 25 27  1  0
 26 27  2  0
 26 28  1  0
 29 28  1  0
 29 30  1  0
 29 31  2  0
 29 32  2  0
M  END
