mac-x0231-mac-x0404
     RDKit          3D

 21 24  0  0  0  0  0  0  0  0999 V2000
    0.4610   10.3890   -2.5070 O   0  0  0  0  0  0  0  0  0  0  0  0
    0.7740   11.7180   -2.4750 C   0  0  0  0  0  0  0  0  0  0  0  0
    0.8310   12.3400   -1.4350 O   0  0  0  0  0  0  0  0  0  0  0  0
    0.9650   12.3000   -3.8470 C   0  0  1  0  0  0  0  0  0  0  0  0
   -0.3960   12.1750   -4.4000 O   0  0  0  0  0  0  0  0  0  0  0  0
    1.2210   13.7580   -3.9080 C   0  0  0  0  0  0  0  0  0  0  0  0
    0.0680   14.3410   -4.5030 C   0  0  0  0  0  0  0  0  0  0  0  0
    2.2350   14.4470   -3.5260 N   0  0  0  0  0  0  0  0  0  0  0  0
   -0.6470   13.2970   -5.2090 C   0  0  2  0  0  0  0  0  0  0  0  0
   -0.1730   15.6120   -4.4070 C   0  0  0  0  0  0  0  0  0  0  0  0
    2.0550   15.7940   -3.7370 N   0  0  0  0  0  0  0  0  0  0  0  0
   -2.0600   13.7030   -5.4520 C   0  0  0  0  0  0  0  0  0  0  0  0
    0.8210   16.4180   -3.7800 C   0  0  0  0  0  0  0  0  0  0  0  0
   -1.2910   16.1300   -5.1310 C   0  0  0  0  0  0  0  0  0  0  0  0
   -2.3560   15.0190   -5.4270 C   0  0  0  0  0  0  0  0  0  0  0  0
    0.6130   17.5570   -3.4230 O   0  0  0  0  0  0  0  0  0  0  0  0
   -1.7730   17.5370   -4.9990 C   0  0  0  0  0  0  0  0  0  0  0  0
    0.0390   16.1300   -5.8020 C   0  0  0  0  0  0  0  0  0  0  0  0
   -1.0080   18.6210   -5.1620 C   0  0  0  0  0  0  0  0  0  0  0  0
    0.8170   17.1950   -5.9410 C   0  0  0  0  0  0  0  0  0  0  0  0
    0.4470   18.5370   -5.4950 C   0  0  0  0  0  0  0  0  0  0  0  0
  1  2  1  0
  2  3  2  0
  4  2  1  1
  4  5  1  0
  4  6  1  0
  6  7  1  0
  6  8  2  0
  5  9  1  0
  7  9  1  0
  7 10  2  0
  8 11  1  0
  9 12  1  1
 10 13  1  0
 11 13  1  0
 10 14  1  0
 12 15  2  0
 14 15  1  0
 13 16  2  0
 14 17  1  0
 14 18  1  0
 17 19  2  0
 18 20  2  0
 19 21  1  0
 20 21  1  0
M  END
