mac-x0302-mac-x0142
     RDKit          3D

 27 30  0  0  0  0  0  0  0  0999 V2000
   -0.2560   11.9830   -3.9590 O   0  0  0  0  0  0  0  0  0  0  0  0
   -0.5930   12.0010   -2.6520 C   0  0  0  0  0  0  0  0  0  0  0  0
    0.2500   11.9000   -1.7600 O   0  0  0  0  0  0  0  0  0  0  0  0
   -2.0810   12.1600   -2.4580 C   0  0  0  0  0  0  0  0  0  0  0  0
   -2.5750   13.2870   -3.2290 N   0  0  0  0  0  0  0  0  0  0  0  0
   -3.5270   14.1050   -2.6850 C   0  0  0  0  0  0  0  0  0  0  0  0
   -4.0740   15.0040   -3.3290 O   0  0  0  0  0  0  0  0  0  0  0  0
   -3.8790   13.8310   -1.2280 C   0  0  2  0  0  0  0  0  0  0  0  0
   -5.4070   13.9380   -0.9910 C   0  0  0  0  0  0  0  0  0  0  0  0
   -2.9150   14.5990   -0.2230 C   0  0  1  0  0  0  0  0  0  0  0  0
   -5.8150   15.1350   -0.1620 C   0  0  1  0  0  0  0  0  0  0  0  0
   -3.6730   14.9970    1.0380 C   0  0  0  0  0  0  0  0  0  0  0  0
   -1.8230   13.7240    0.1930 N   0  0  0  0  0  0  0  0  0  0  0  0
   -2.2770   15.8300   -0.8950 C   0  0  0  0  0  0  0  0  0  0  0  0
   -7.1900   14.9740    0.1760 O   0  0  0  0  0  0  0  0  0  0  0  0
   -4.9800   15.2350    1.0670 C   0  0  0  0  0  0  0  0  0  0  0  0
   -0.7560   14.4320    0.8510 C   0  0  0  0  0  0  0  0  0  0  0  0
   -0.7710   15.6800   -1.2500 C   0  0  2  0  0  0  0  0  0  0  0  0
   -0.3890   14.9340   -2.4580 N   0  0  0  0  0  0  0  0  0  0  0  0
    0.0120   15.1460   -0.1360 N   0  0  0  0  0  0  0  0  0  0  0  0
   -1.0810   15.3910   -3.6660 C   0  0  0  0  0  0  0  0  0  0  0  0
    1.0570   14.7550   -2.6810 C   0  0  0  0  0  0  0  0  0  0  0  0
    1.4070   13.9070   -3.8840 C   0  0  0  0  0  0  0  0  0  0  0  0
   -0.8350   14.4460   -4.8470 C   0  0  0  0  0  0  0  0  0  0  0  0
    2.8080   13.3260   -3.9940 C   0  0  0  0  0  0  0  0  0  0  0  0
    1.6670   12.4320   -3.6800 C   0  0  0  0  0  0  0  0  0  0  0  0
    0.6570   14.2890   -5.1400 C   0  0  0  0  0  0  0  0  0  0  0  0
  1  2  1  0
  2  3  2  0
  2  4  1  0
  4  5  1  0
  5  6  1  0
  6  7  2  0
  8  6  1  6
  8  9  1  0
  8 10  1  0
  9 11  1  0
 10 12  1  1
 10 13  1  0
 10 14  1  0
 11 15  1  1
 11 16  1  0
 12 16  2  0
 13 17  1  0
 14 18  1  0
 18 19  1  6
 17 20  1  0
 18 20  1  0
 19 21  1  0
 19 22  1  0
 23 22  1  0
 21 24  1  0
 23 25  1  0
 23 26  1  0
 25 26  1  0
 23 27  1  0
 24 27  1  0
M  END
