mac-x0379-mac-x0212
     RDKit          3D

 13 13  0  0  0  0  0  0  0  0999 V2000
   -4.9940   14.9800    0.6710 C   0  0  0  0  0  0  0  0  0  0  0  0
   -6.6730   14.3310    0.6700 S   0  0  0  0  0  0  0  0  0  0  0  0
   -6.4960   12.6060    1.0830 C   0  0  0  0  0  0  0  0  0  0  0  0
   -4.2770   14.9810   -0.6440 C   0  0  0  0  0  0  0  0  0  0  0  0
   -7.3930   14.9200    1.7950 O   0  0  0  0  0  0  0  0  0  0  0  0
   -7.2550   14.4430   -0.6510 O   0  0  0  0  0  0  0  0  0  0  0  0
   -4.7830   15.1620   -1.8490 N   0  0  0  0  0  0  0  0  0  0  0  0
   -2.5710   14.7260   -0.6350 S   0  0  0  0  0  0  0  0  0  0  0  0
   -3.7810   15.1090   -2.8090 C   0  0  0  0  0  0  0  0  0  0  0  0
   -2.5030   14.8830   -2.3380 C   0  0  0  0  0  0  0  0  0  0  0  0
   -1.2800   14.7950   -3.1160 C   0  0  0  0  0  0  0  0  0  0  0  0
   -1.2220   14.6060   -4.3200 O   0  0  0  0  0  0  0  0  0  0  0  0
   -0.1540   14.9520   -2.3730 O   0  0  0  0  0  0  0  0  0  0  0  0
  2  1  1  0
  2  3  1  0
  1  4  1  0
  2  5  2  0
  2  6  2  0
  4  7  2  0
  4  8  1  0
  7  9  1  0
  8 10  1  0
  9 10  2  0
 10 11  1  0
 11 12  2  0
 11 13  1  0
M  END
