mac-x0572-diamond-x0969_0_A
     RDKit          3D

 13 14  0  0  0  0  0  0  0  0999 V2000
   -7.9250   14.5290    3.1810 C   0  0  0  0  0  0  0  0  0  0  0  0
   -7.1900   14.6380    1.8640 C   0  0  0  0  0  0  0  0  0  0  0  0
   -5.8340   14.7370    2.0310 N   0  0  0  0  0  0  0  0  0  0  0  0
   -7.8010   14.6350    0.6650 C   0  0  0  0  0  0  0  0  0  0  0  0
   -9.1680   14.5290    0.4830 O   0  0  0  0  0  0  0  0  0  0  0  0
   -6.9360   14.7630   -0.5610 C   0  0  0  0  0  0  0  0  0  0  0  0
   -5.0620   15.0730    1.0480 C   0  0  0  0  0  0  0  0  0  0  0  0
   -7.3420   14.3800   -1.6540 O   0  0  0  0  0  0  0  0  0  0  0  0
   -5.5650   15.3970   -0.3500 C   0  0  1  0  0  0  0  0  0  0  0  0
   -3.6150   15.1320    1.3200 C   0  0  0  0  0  0  0  0  0  0  0  0
   -2.7730   15.0890    0.2920 C   0  0  0  0  0  0  0  0  0  0  0  0
   -4.5260   15.1180   -1.3950 C   0  0  0  0  0  0  0  0  0  0  0  0
   -3.2300   14.9830   -1.0790 C   0  0  0  0  0  0  0  0  0  0  0  0
  1  2  1  0
  2  3  1  0
  2  4  2  0
  4  5  1  0
  4  6  1  0
  3  7  2  0
  6  8  2  0
  6  9  1  0
  7  9  1  0
  7 10  1  0
 10 11  2  0
  9 12  1  6
 11 13  1  0
 12 13  2  0
M  END
