mac-x0321-diamond-x0837_0_A
     RDKit          3D

 11 11  0  0  0  0  0  0  0  0999 V2000
   -4.4660   15.4270    1.6540 Cl  0  0  0  0  0  0  0  0  0  0  0  0
   -4.5570   15.4990   -0.1060 C   0  0  1  0  0  0  0  0  0  0  0  0
   -3.3890   14.7610   -0.7130 C   0  0  0  0  0  0  0  0  0  0  0  0
   -5.8650   15.0210   -0.6990 C   0  0  0  0  0  0  0  0  0  0  0  0
   -6.9020   14.7350   -0.0820 O   0  0  0  0  0  0  0  0  0  0  0  0
   -3.3430   15.1510   -2.1810 C   0  0  1  0  0  0  0  0  0  0  0  0
   -5.8400   14.8700   -2.1810 C   0  0  0  0  0  0  0  0  0  0  0  0
   -2.1290   14.5470   -2.8880 C   0  0  0  0  0  0  0  0  0  0  0  0
   -4.6710   14.9220   -2.8480 C   0  0  0  0  0  0  0  0  0  0  0  0
   -1.0700   14.4040   -2.0600 O   0  0  0  0  0  0  0  0  0  0  0  0
   -2.0390   14.2120   -4.0520 O   0  0  0  0  0  0  0  0  0  0  0  0
  2  1  1  1
  2  3  1  0
  2  4  1  0
  4  5  2  0
  3  6  1  0
  4  7  1  0
  6  8  1  6
  6  9  1  0
  7  9  2  0
  8 10  1  0
  8 11  2  0
M  END
