mac-x0159-mac-x0263
     RDKit          3D

 29 33  0  0  0  0  0  0  0  0999 V2000
   -3.5920   16.2820    0.3120 N   0  0  0  0  0  0  0  0  0  0  0  0
   -3.4010   14.8940   -0.0100 C   0  0  2  0  0  0  0  0  0  0  0  0
   -1.9050   14.6010    0.1180 C   0  0  1  0  0  0  0  0  0  0  0  0
   -3.8470   14.5850   -1.4100 N   0  0  0  0  0  0  0  0  0  0  0  0
   -4.2030   14.2520    1.1080 C   0  0  0  0  0  0  0  0  0  0  0  0
   -2.9830   15.1290   -2.4870 C   0  0  0  0  0  0  0  0  0  0  0  0
   -1.0710   15.1470   -0.9910 C   0  0  2  0  0  0  0  0  0  0  0  0
   -1.2070   15.1370    1.2630 N   0  0  0  0  0  0  0  0  0  0  0  0
   -5.6360   14.1790    0.7020 C   0  0  2  0  0  0  0  0  0  0  0  0
   -5.2690   14.8670   -1.6970 C   0  0  0  0  0  0  0  0  0  0  0  0
   -1.5910   14.8130   -2.2660 N   0  0  0  0  0  0  0  0  0  0  0  0
    0.2210   14.6860   -0.5780 N   0  0  0  0  0  0  0  0  0  0  0  0
    0.1380   14.7730    0.8790 C   0  0  0  0  0  0  0  0  0  0  0  0
   -6.0820   15.0500   -0.4310 C   0  0  1  0  0  0  0  0  0  0  0  0
   -6.6510   14.5200    1.6860 N   0  0  0  0  0  0  0  0  0  0  0  0
   -0.6890   14.6900   -3.4170 C   0  0  0  0  0  0  0  0  0  0  0  0
   -7.7240   13.9840    0.8480 C   0  0  2  0  0  0  0  0  0  0  0  0
   -7.5330   14.7080   -0.4290 N   0  0  0  0  0  0  0  0  0  0  0  0
   -9.1190   14.1060    1.4630 C   0  0  0  0  0  0  0  0  0  0  0  0
   -0.3480   15.9630   -4.1700 C   0  0  0  0  0  0  0  0  0  0  0  0
   -9.4610   15.4170    2.1470 C   0  0  0  0  0  0  0  0  0  0  0  0
    0.9230   16.5030   -4.2550 C   0  0  0  0  0  0  0  0  0  0  0  0
   -1.3190   16.6960   -4.8540 N   0  0  0  0  0  0  0  0  0  0  0  0
  -10.8260   15.3190    2.7620 C   0  0  0  0  0  0  0  0  0  0  0  0
   -0.7820   17.7490   -5.4310 C   0  0  0  0  0  0  0  0  0  0  0  0
    0.9010   17.9360   -5.1970 S   0  0  0  0  0  0  0  0  0  0  0  0
   -1.5320   18.7410   -6.2420 C   0  0  0  0  0  0  0  0  0  0  0  0
  -11.5430   14.2850    2.2900 O   0  0  0  0  0  0  0  0  0  0  0  0
  -11.3080   16.0440    3.6090 O   0  0  0  0  0  0  0  0  0  0  0  0
  2  1  1  1
  2  3  1  0
  2  4  1  0
  2  5  1  0
  4  6  1  0
  3  7  1  0
  3  8  1  1
  9  5  1  1
  4 10  1  0
  6 11  1  0
  7 11  1  0
  7 12  1  6
  8 13  1  0
 12 13  1  0
  9 14  1  0
 14 10  1  6
  9 15  1  0
 11 16  1  0
 15 17  1  0
 14 18  1  0
 17 18  1  0
 17 19  1  1
 16 20  1  0
 19 21  1  0
 20 22  2  0
 20 23  1  0
 21 24  1  0
 23 25  2  0
 22 26  1  0
 25 26  1  0
 25 27  1  0
 24 28  1  0
 24 29  2  0
M  END
