mac-x0132-mac-x0453
     RDKit          3D

 13 14  0  0  0  0  0  0  0  0999 V2000
   -4.8500   14.6600    2.1830 N   0  0  0  0  0  0  0  0  0  0  0  0
   -5.7530   14.1240    3.1640 C   0  0  0  0  0  0  0  0  0  0  0  0
   -7.1400   14.5250    3.0440 N   0  0  0  0  0  0  0  0  0  0  0  0
   -5.5980   14.7180    1.0150 C   0  0  0  0  0  0  0  0  0  0  0  0
   -5.0080   14.8600   -0.2430 C   0  0  0  0  0  0  0  0  0  0  0  0
   -6.9240   14.6240    1.1880 N   0  0  0  0  0  0  0  0  0  0  0  0
   -5.9210   14.8940   -1.3050 C   0  0  0  0  0  0  0  0  0  0  0  0
   -7.6830   14.6720    0.1070 C   0  0  0  0  0  0  0  0  0  0  0  0
   -3.6210   14.9620   -0.5060 C   0  0  0  0  0  0  0  0  0  0  0  0
   -7.2440   14.8020   -1.1400 N   0  0  0  0  0  0  0  0  0  0  0  0
   -5.4330   15.0270   -2.5910 C   0  0  0  0  0  0  0  0  0  0  0  0
   -3.1570   15.0930   -1.8120 C   0  0  0  0  0  0  0  0  0  0  0  0
   -4.0670   15.1250   -2.8550 C   0  0  0  0  0  0  0  0  0  0  0  0
  1  2  1  0
  2  3  1  0
  1  4  1  0
  4  5  2  0
  4  6  1  0
  5  7  1  0
  6  8  2  0
  5  9  1  0
  7 10  2  0
  8 10  1  0
  7 11  1  0
  9 12  2  0
 11 13  2  0
 12 13  1  0
M  END
