mac-x0392-diamond-x0628_0_A
     RDKit          3D

 23 24  0  0  0  0  0  0  0  0999 V2000
    0.1540   14.0410    0.3390 N   0  0  0  0  0  0  0  0  0  0  0  0
   -1.1760   14.4120    0.0990 C   0  0  0  0  0  0  0  0  0  0  0  0
   -2.0700   14.4880    1.1580 C   0  0  0  0  0  0  0  0  0  0  0  0
   -1.7060   14.7260   -1.1630 C   0  0  0  0  0  0  0  0  0  0  0  0
   -0.9290   14.7230   -2.4300 C   0  0  0  0  0  0  0  0  0  0  0  0
   -3.0590   15.0810   -1.2920 C   0  0  0  0  0  0  0  0  0  0  0  0
   -3.3740   14.8340    1.0620 N   0  0  0  0  0  0  0  0  0  0  0  0
   -1.4110   14.3950   -3.4950 O   0  0  0  0  0  0  0  0  0  0  0  0
    0.3440   15.1660   -2.2420 O   0  0  0  0  0  0  0  0  0  0  0  0
   -3.8430   15.1220   -0.1590 C   0  0  0  0  0  0  0  0  0  0  0  0
    1.3610   14.2110   -1.9080 C   0  0  0  0  0  0  0  0  0  0  0  0
    0.8550   12.8730   -1.8500 O   0  0  0  0  0  0  0  0  0  0  0  0
    0.9240   12.1260   -2.9850 C   0  0  0  0  0  0  0  0  0  0  0  0
    0.5380   10.9650   -3.0540 O   0  0  0  0  0  0  0  0  0  0  0  0
    1.5310   12.8770   -4.1550 C   0  0  0  0  0  0  0  0  0  0  0  0
    0.5060   13.1050   -5.2640 C   0  0  0  0  0  0  0  0  0  0  0  0
   -0.2820   11.9250   -5.5750 N   0  0  0  0  0  0  0  0  0  0  0  0
    0.1500   11.0640   -6.5110 N   0  0  0  0  0  0  0  0  0  0  0  0
   -1.4800   11.5070   -5.0390 C   0  0  0  0  0  0  0  0  0  0  0  0
   -2.2350   12.2210   -3.9840 C   0  0  0  0  0  0  0  0  0  0  0  0
   -1.8300   10.3790   -5.6190 N   0  0  0  0  0  0  0  0  0  0  0  0
   -0.8150   10.1390   -6.5050 C   0  0  0  0  0  0  0  0  0  0  0  0
   -0.7950    8.9530   -7.3790 C   0  0  0  0  0  0  0  0  0  0  0  0
  1  2  1  0
  2  3  2  0
  2  4  1  0
  4  5  1  0
  4  6  2  0
  3  7  1  0
  5  8  2  0
  5  9  1  0
  6 10  1  0
  7 10  2  0
  9 11  1  0
 11 12  1  0
 12 13  1  0
 13 14  2  0
 13 15  1  0
 15 16  1  0
 16 17  1  0
 17 18  1  0
 17 19  1  0
 19 20  1  0
 19 21  2  0
 18 22  2  0
 21 22  1  0
 22 23  1  0
M  END
