mac-x0357-diamond-x0465_0_A
     RDKit          3D

 23 26  0  0  0  0  0  0  0  0999 V2000
   -0.5710   12.5060   -5.0830 C   0  0  0  0  0  0  0  0  0  0  0  0
    0.8010   12.7620   -4.8310 C   0  0  1  0  0  0  0  0  0  0  0  0
    0.9000   12.0020   -3.3920 C   0  0  0  0  0  0  0  0  0  0  0  0
   -0.6140   12.7440   -3.8430 C   0  0  0  0  0  0  0  0  0  0  0  0
    0.3040   12.5020   -5.9670 C   0  0  0  0  0  0  0  0  0  0  0  0
    0.2160   12.2120   -7.2010 N   0  0  0  0  0  0  0  0  0  0  0  0
    0.6410   13.1260   -3.3570 C   0  0  0  0  0  0  0  0  0  0  0  0
    1.5530   12.8720   -5.4730 C   0  0  0  0  0  0  0  0  0  0  0  0
   -1.4690   12.7290   -2.8080 C   0  0  0  0  0  0  0  0  0  0  0  0
    1.4510   12.3120   -6.2610 C   0  0  0  0  0  0  0  0  0  0  0  0
   -0.1540   12.1460   -2.0110 S   0  0  0  0  0  0  0  0  0  0  0  0
    1.7450   13.1970   -4.1700 C   0  0  0  0  0  0  0  0  0  0  0  0
   -0.1380   11.0260   -7.8810 C   0  0  0  0  0  0  0  0  0  0  0  0
    1.0470   13.4000   -1.5280 O   0  0  0  0  0  0  0  0  0  0  0  0
   -0.5680   12.5010   -0.6540 O   0  0  0  0  0  0  0  0  0  0  0  0
    0.0970   10.7080   -1.5590 O   0  0  0  0  0  0  0  0  0  0  0  0
   -0.8390   10.0800   -7.0070 C   0  0  0  0  0  0  0  0  0  0  0  0
   -0.3390    8.7660   -7.0060 C   0  0  0  0  0  0  0  0  0  0  0  0
   -1.9070   10.4160   -6.2380 C   0  0  0  0  0  0  0  0  0  0  0  0
    0.7240    8.4220   -7.7690 F   0  0  0  0  0  0  0  0  0  0  0  0
   -0.9750    7.8560   -6.2040 C   0  0  0  0  0  0  0  0  0  0  0  0
   -2.5440    9.4780   -5.4280 C   0  0  0  0  0  0  0  0  0  0  0  0
   -2.0530    8.2100   -5.4380 C   0  0  0  0  0  0  0  0  0  0  0  0
  1  2  1  0
  2  3  1  1
  1  4  2  0
  1  5  1  0
  5  6  1  0
  4  7  1  0
  5  8  2  0
  4  9  1  0
  2 10  1  0
  6 10  1  0
  3 11  1  0
  9 11  1  0
  7 12  2  0
  8 12  1  0
  6 13  1  0
 11 14  2  0
 11 15  1  0
 11 16  1  0
 13 17  1  0
 17 18  2  0
 17 19  1  0
 18 20  1  0
 18 21  1  0
 19 22  2  0
 21 23  2  0
 22 23  1  0
M  END
