mac-x0394-mac-x0326
     RDKit          3D

 23 25  0  0  0  0  0  0  0  0999 V2000
    1.0650   18.3600   -5.4760 Cl  0  0  0  0  0  0  0  0  0  0  0  0
    0.1770   16.9370   -5.1730 C   0  0  0  0  0  0  0  0  0  0  0  0
   -1.1540   16.9060   -5.5680 C   0  0  0  0  0  0  0  0  0  0  0  0
    0.7730   15.8420   -4.5410 C   0  0  0  0  0  0  0  0  0  0  0  0
   -0.0020   14.6940   -4.3020 C   0  0  0  0  0  0  0  0  0  0  0  0
   -1.8950   15.7610   -5.3380 C   0  0  0  0  0  0  0  0  0  0  0  0
   -3.5390   15.6630   -5.8180 Cl  0  0  0  0  0  0  0  0  0  0  0  0
    0.5110   13.4870   -3.5580 C   0  0  1  0  0  0  0  0  0  0  0  0
   -1.3320   14.6720   -4.7190 C   0  0  0  0  0  0  0  0  0  0  0  0
    1.4340   12.4260   -3.9670 C   0  0  0  0  0  0  0  0  0  0  0  0
    1.0090   14.1510   -2.3330 C   0  0  0  0  0  0  0  0  0  0  0  0
    0.8380   11.4560   -4.6780 O   0  0  0  0  0  0  0  0  0  0  0  0
    2.5890   12.4060   -3.6190 O   0  0  0  0  0  0  0  0  0  0  0  0
   -0.3040   14.4550   -1.7670 C   0  0  0  0  0  0  0  0  0  0  0  0
   -1.3710   14.5910   -2.5330 N   0  0  0  0  0  0  0  0  0  0  0  0
   -0.5050   14.6140   -0.0990 S   0  0  0  0  0  0  0  0  0  0  0  0
   -2.4630   14.8390   -1.7540 C   0  0  0  0  0  0  0  0  0  0  0  0
   -2.1770   14.8840   -0.3890 C   0  0  0  0  0  0  0  0  0  0  0  0
   -3.7800   15.0400   -2.2080 C   0  0  0  0  0  0  0  0  0  0  0  0
   -3.1650   15.1250    0.5550 C   0  0  0  0  0  0  0  0  0  0  0  0
   -4.7670   15.2790   -1.2480 C   0  0  0  0  0  0  0  0  0  0  0  0
   -4.4590   15.3220    0.1030 C   0  0  0  0  0  0  0  0  0  0  0  0
   -6.3990   15.5200   -1.7180 Cl  0  0  0  0  0  0  0  0  0  0  0  0
  1  2  1  0
  2  3  2  0
  2  4  1  0
  4  5  2  0
  3  6  1  0
  6  7  1  0
  5  8  1  0
  5  9  1  0
  6  9  2  0
  8 10  1  0
  8 11  1  1
 10 12  1  0
 10 13  2  0
 11 14  1  0
 14 15  2  0
 14 16  1  0
 15 17  1  0
 16 18  1  0
 17 18  2  0
 17 19  1  0
 18 20  1  0
 19 21  2  0
 20 22  2  0
 21 22  1  0
 21 23  1  0
M  END
