mac-x0212-mac-x0116
     RDKit          3D

 23 25  0  0  0  0  0  0  0  0999 V2000
   -7.8070   13.1620    0.1000 C   0  0  0  0  0  0  0  0  0  0  0  0
   -7.2280   14.7900    0.5000 S   0  0  0  0  0  0  0  0  0  0  0  0
   -8.1640   15.2430    1.5170 O   0  0  0  0  0  0  0  0  0  0  0  0
   -7.1690   15.4700   -0.7770 O   0  0  0  0  0  0  0  0  0  0  0  0
   -5.4670   14.5380    1.2240 C   0  0  2  0  0  0  0  0  0  0  0  0
   -5.1490   15.4270    2.3730 N   0  0  0  0  0  0  0  0  0  0  0  0
   -4.3990   14.6010    0.0920 C   0  0  0  0  0  0  0  0  0  0  0  0
   -5.9400   13.1770    1.6430 C   0  0  0  0  0  0  0  0  0  0  0  0
   -2.9650   14.5630    0.3090 C   0  0  0  0  0  0  0  0  0  0  0  0
   -4.8020   14.6910   -1.2750 C   0  0  0  0  0  0  0  0  0  0  0  0
   -5.9340   12.2590    0.6350 O   0  0  0  0  0  0  0  0  0  0  0  0
   -6.4300   12.5820    2.7870 C   0  0  0  0  0  0  0  0  0  0  0  0
   -2.1050   14.5820   -0.7890 C   0  0  0  0  0  0  0  0  0  0  0  0
   -3.9030   14.7130   -2.3370 C   0  0  0  0  0  0  0  0  0  0  0  0
   -6.7450   11.2510    2.4480 C   0  0  0  0  0  0  0  0  0  0  0  0
   -6.4260   11.1160    1.1230 C   0  0  0  0  0  0  0  0  0  0  0  0
   -2.1770   14.4990    1.4730 N   0  0  0  0  0  0  0  0  0  0  0  0
   -2.5330   14.6460   -2.1110 C   0  0  0  0  0  0  0  0  0  0  0  0
   -0.8280   14.5250   -0.2710 N   0  0  0  0  0  0  0  0  0  0  0  0
   -0.9170   14.4790    1.0820 C   0  0  0  0  0  0  0  0  0  0  0  0
   -1.5990   14.6370   -3.2440 C   0  0  0  0  0  0  0  0  0  0  0  0
   -0.4640   14.1990   -3.2020 O   0  0  0  0  0  0  0  0  0  0  0  0
   -2.1100   15.1510   -4.3760 O   0  0  0  0  0  0  0  0  0  0  0  0
  2  1  1  0
  2  3  2  0
  2  4  2  0
  2  5  1  0
  5  6  1  1
  5  7  1  0
  5  8  1  0
  7  9  1  0
  7 10  2  0
  8 11  1  0
  8 12  2  0
  9 13  2  0
 10 14  1  0
 12 15  1  0
 11 16  1  0
 15 16  2  0
  9 17  1  0
 13 18  1  0
 14 18  2  0
 13 19  1  0
 17 20  2  0
 19 20  1  0
 18 21  1  0
 21 22  2  0
 21 23  1  0
M  END
