mac-x0373-mac-x0375
     RDKit          3D

 26 28  0  0  0  0  0  0  0  0999 V2000
    0.3060   12.8080   -2.0580 O   0  0  0  0  0  0  0  0  0  0  0  0
    0.0680   14.1390   -2.2320 C   0  0  0  0  0  0  0  0  0  0  0  0
    0.8670   15.0420   -2.0160 O   0  0  0  0  0  0  0  0  0  0  0  0
    0.5980   11.9520   -3.0980 C   0  0  0  0  0  0  0  0  0  0  0  0
   -1.3590   14.4140   -2.7390 C   0  0  0  0  0  0  0  0  0  0  0  0
    0.6960   10.7390   -2.9870 O   0  0  0  0  0  0  0  0  0  0  0  0
    0.7890   12.6530   -4.4500 C   0  0  0  0  0  0  0  0  0  0  0  0
    0.8120   11.7440   -5.5720 O   0  0  0  0  0  0  0  0  0  0  0  0
   -1.9330   13.3490   -3.6570 C   0  0  0  0  0  0  0  0  0  0  0  0
   -2.4110   14.8220   -1.7050 C   0  0  0  0  0  0  0  0  0  0  0  0
   -1.5610   13.3060   -5.0100 C   0  0  0  0  0  0  0  0  0  0  0  0
   -2.8470   12.4060   -3.1650 C   0  0  0  0  0  0  0  0  0  0  0  0
   -3.6460   15.3700   -2.0990 C   0  0  0  0  0  0  0  0  0  0  0  0
   -2.1670   14.6530   -0.3270 C   0  0  0  0  0  0  0  0  0  0  0  0
   -0.1820   10.8150   -5.8210 C   0  0  0  0  0  0  0  0  0  0  0  0
   -2.0980   12.3400   -5.8530 C   0  0  0  0  0  0  0  0  0  0  0  0
   -3.3840   11.4440   -4.0090 C   0  0  0  0  0  0  0  0  0  0  0  0
   -4.6020   15.7350   -1.1530 C   0  0  0  0  0  0  0  0  0  0  0  0
   -3.1290   15.0230    0.6170 C   0  0  0  0  0  0  0  0  0  0  0  0
   -0.3010   10.0730   -7.0000 C   0  0  0  0  0  0  0  0  0  0  0  0
   -1.1200   10.6090   -4.8100 C   0  0  0  0  0  0  0  0  0  0  0  0
   -3.0120   11.4110   -5.3530 C   0  0  0  0  0  0  0  0  0  0  0  0
   -4.3420   15.5630    0.1990 C   0  0  0  0  0  0  0  0  0  0  0  0
   -1.3380    9.1490   -7.1610 C   0  0  0  0  0  0  0  0  0  0  0  0
   -2.1570    9.6820   -4.9740 C   0  0  0  0  0  0  0  0  0  0  0  0
   -2.2670    8.9530   -6.1490 C   0  0  0  0  0  0  0  0  0  0  0  0
  1  2  1  0
  2  3  2  0
  1  4  1  0
  2  5  1  0
  4  6  2  0
  4  7  1  0
  7  8  1  0
  5  9  1  0
  5 10  1  0
  9 11  2  0
  9 12  1  0
 10 13  2  0
 10 14  1  0
  8 15  1  0
 11 16  1  0
 12 17  2  0
 13 18  1  0
 14 19  2  0
 15 20  2  0
 15 21  1  0
 16 22  2  0
 17 22  1  0
 18 23  2  0
 19 23  1  0
 20 24  1  0
 21 25  2  0
 24 26  2  0
 25 26  1  0
M  END
