mac-x0341-diamond-x0895_0_A
     RDKit          3D

 13 14  0  0  0  0  0  0  0  0999 V2000
   -6.9100   14.5420    2.3110 N   0  0  0  0  0  0  0  0  0  0  0  0
   -6.1340   14.7130    1.2100 C   0  0  0  0  0  0  0  0  0  0  0  0
   -4.7850   14.6900    1.4170 N   0  0  0  0  0  0  0  0  0  0  0  0
   -6.7100   14.8910    0.0620 N   0  0  0  0  0  0  0  0  0  0  0  0
   -5.9920   15.0780   -1.0860 C   0  0  0  0  0  0  0  0  0  0  0  0
   -4.0030   14.7990    0.3970 C   0  0  0  0  0  0  0  0  0  0  0  0
   -6.5010   15.3210   -2.1710 O   0  0  0  0  0  0  0  0  0  0  0  0
   -4.5370   14.9520   -0.9580 C   0  0  0  0  0  0  0  0  0  0  0  0
   -2.4830   14.7570    0.5580 C   0  0  0  0  0  0  0  0  0  0  0  0
   -1.9030   14.7460    1.6500 O   0  0  0  0  0  0  0  0  0  0  0  0
   -1.6860   14.7190   -0.6920 C   0  0  0  0  0  0  0  0  0  0  0  0
   -3.7190   14.9660   -2.0180 C   0  0  0  0  0  0  0  0  0  0  0  0
   -2.2950   14.8220   -1.8830 C   0  0  0  0  0  0  0  0  0  0  0  0
  1  2  1  0
  2  3  1  0
  2  4  2  0
  4  5  1  0
  3  6  2  0
  5  7  2  0
  5  8  1  0
  6  8  1  0
  6  9  1  0
  9 10  2  0
  9 11  1  0
  8 12  2  0
 11 13  2  0
 12 13  1  0
M  END
