mac-x0341-diamond-x0855_0_A
     RDKit          3D

 24 26  0  0  0  0  0  0  0  0999 V2000
   -6.8410   14.6690    2.3820 N   0  0  0  0  0  0  0  0  0  0  0  0
   -6.0560   14.7340    1.2770 C   0  0  0  0  0  0  0  0  0  0  0  0
   -4.7640   14.7180    1.3950 N   0  0  0  0  0  0  0  0  0  0  0  0
   -6.6810   14.8180    0.0650 N   0  0  0  0  0  0  0  0  0  0  0  0
   -6.0030   15.1070   -1.0940 C   0  0  0  0  0  0  0  0  0  0  0  0
   -3.9770   14.7720    0.2380 C   0  0  0  0  0  0  0  0  0  0  0  0
   -6.5710   15.4330   -2.1230 O   0  0  0  0  0  0  0  0  0  0  0  0
   -4.5410   14.9670   -1.0210 C   0  0  0  0  0  0  0  0  0  0  0  0
   -2.5850   14.6150    0.3370 C   0  0  0  0  0  0  0  0  0  0  0  0
   -1.7700   14.6510   -0.8170 C   0  0  0  0  0  0  0  0  0  0  0  0
   -3.7610   15.0170   -2.1700 C   0  0  0  0  0  0  0  0  0  0  0  0
   -0.2560   14.4660   -0.7360 C   0  0  0  0  0  0  0  0  0  0  0  0
   -2.3810   14.8580   -2.0670 C   0  0  0  0  0  0  0  0  0  0  0  0
    0.3830   14.3330   -2.1330 C   0  0  0  0  0  0  0  0  0  0  0  0
    1.2410   13.1680   -2.2230 O   0  0  0  0  0  0  0  0  0  0  0  0
    0.8240   12.1650   -3.0540 C   0  0  0  0  0  0  0  0  0  0  0  0
    0.6410   11.0110   -2.6720 O   0  0  0  0  0  0  0  0  0  0  0  0
    0.5930   12.5770   -4.4870 C   0  0  0  0  0  0  0  0  0  0  0  0
   -0.4290   11.7270   -5.0670 N   0  0  0  0  0  0  0  0  0  0  0  0
   -0.2790   10.8100   -6.0670 C   0  0  0  0  0  0  0  0  0  0  0  0
   -1.6900   11.8050   -4.5950 N   0  0  0  0  0  0  0  0  0  0  0  0
   -1.5200   10.2560   -6.2350 C   0  0  0  0  0  0  0  0  0  0  0  0
   -2.3550   10.8990   -5.3140 C   0  0  0  0  0  0  0  0  0  0  0  0
   -2.0350    8.9220   -7.4260 Br  0  0  0  0  0  0  0  0  0  0  0  0
  1  2  1  0
  2  3  2  0
  2  4  1  0
  4  5  1  0
  3  6  1  0
  5  7  2  0
  5  8  1  0
  6  8  2  0
  6  9  1  0
  9 10  2  0
  8 11  1  0
 10 12  1  0
 10 13  1  0
 11 13  2  0
 12 14  1  0
 14 15  1  0
 15 16  1  0
 16 17  2  0
 16 18  1  0
 18 19  1  0
 19 20  1  0
 19 21  1  0
 20 22  2  0
 21 23  2  0
 22 23  1  0
 22 24  1  0
M  END
