mac-x0301-diamond-x0950_0_A
     RDKit          3D

 19 20  0  0  0  0  0  0  0  0999 V2000
    0.1070   15.0190   -2.9720 O   0  0  0  0  0  0  0  0  0  0  0  0
   -1.1610   14.3730   -2.9550 C   0  0  0  0  0  0  0  0  0  0  0  0
   -1.7370   14.6150   -4.2320 O   0  0  0  0  0  0  0  0  0  0  0  0
   -0.9850   12.8870   -2.6840 C   0  0  0  0  0  0  0  0  0  0  0  0
   -1.9670   14.7730   -1.7630 C   0  0  0  0  0  0  0  0  0  0  0  0
    0.3680   12.5800   -2.3820 O   0  0  0  0  0  0  0  0  0  0  0  0
   -1.4260   14.6310   -0.4950 C   0  0  0  0  0  0  0  0  0  0  0  0
   -3.2760   15.2840   -1.8410 C   0  0  0  0  0  0  0  0  0  0  0  0
    0.7420   11.7780   -3.3620 C   0  0  0  0  0  0  0  0  0  0  0  0
   -2.1140   14.9650    0.6470 C   0  0  0  0  0  0  0  0  0  0  0  0
   -3.9860   15.6250   -0.6750 C   0  0  0  0  0  0  0  0  0  0  0  0
   -0.1790   14.1560   -0.2170 O   0  0  0  0  0  0  0  0  0  0  0  0
    1.4510   12.6190   -4.4450 C   0  0  1  0  0  0  0  0  0  0  0  0
    0.4840   10.5910   -3.3670 O   0  0  0  0  0  0  0  0  0  0  0  0
   -3.4030   15.4650    0.5910 C   0  0  0  0  0  0  0  0  0  0  0  0
   -1.3800   14.7450    1.7750 O   0  0  0  0  0  0  0  0  0  0  0  0
   -0.1040   14.4310    1.1930 C   0  0  0  0  0  0  0  0  0  0  0  0
    2.9110   12.8620   -4.1040 C   0  0  0  0  0  0  0  0  0  0  0  0
    1.3550   12.0660   -5.7510 O   0  0  0  0  0  0  0  0  0  0  0  0
  2  1  1  0
  2  3  1  0
  2  4  1  0
  2  5  1  0
  4  6  1  0
  5  7  2  0
  5  8  1  0
  6  9  1  0
  7 10  1  0
  8 11  2  0
  7 12  1  0
  9 13  1  0
  9 14  2  0
 10 15  2  0
 11 15  1  0
 10 16  1  0
 12 17  1  0
 16 17  1  0
 13 18  1  1
 13 19  1  0
M  END
