mac-x0213-diamond-x0685_1_A
     RDKit          3D

 22 24  0  0  0  0  0  0  0  0999 V2000
    0.6190   13.0250   -1.4240 O   0  0  0  0  0  0  0  0  0  0  0  0
    0.2600   12.6220   -2.8100 S   0  0  0  0  0  0  0  0  0  0  0  0
    2.1290   12.5210   -2.7810 O   0  0  0  0  0  0  0  0  0  0  0  0
    0.3440   11.9330   -4.2170 C   0  0  0  0  0  0  0  0  0  0  0  0
   -0.4220   11.4810   -2.3090 O   0  0  0  0  0  0  0  0  0  0  0  0
   -0.1010   14.0370   -3.6140 C   0  0  0  0  0  0  0  0  0  0  0  0
   -0.9820   11.9420   -4.9800 C   0  0  0  0  0  0  0  0  0  0  0  0
   -1.5260   14.6090   -3.4820 C   0  0  0  0  0  0  0  0  0  0  0  0
    0.6730   15.2520   -3.3700 C   0  0  0  0  0  0  0  0  0  0  0  0
   -1.3340   10.6460   -5.3010 N   0  0  0  0  0  0  0  0  0  0  0  0
   -1.3380   15.8310   -4.3280 C   0  0  0  0  0  0  0  0  0  0  0  0
   -0.0160   16.2360   -4.2680 C   0  0  0  0  0  0  0  0  0  0  0  0
   -2.2090   16.5720   -5.1010 C   0  0  0  0  0  0  0  0  0  0  0  0
    0.3820   17.3530   -4.9670 C   0  0  0  0  0  0  0  0  0  0  0  0
   -0.8580   10.1600   -6.4910 C   0  0  0  0  0  0  0  0  0  0  0  0
   -1.8180   17.7000   -5.8100 C   0  0  0  0  0  0  0  0  0  0  0  0
   -0.4920   18.0970   -5.7370 C   0  0  0  0  0  0  0  0  0  0  0  0
   -0.6280    8.7190   -6.6640 C   0  0  0  0  0  0  0  0  0  0  0  0
   -1.5770   10.7720   -7.6620 C   0  0  0  0  0  0  0  0  0  0  0  0
    0.0020    8.3450   -7.9470 C   0  0  0  0  0  0  0  0  0  0  0  0
   -1.0350   10.4030   -8.9810 C   0  0  0  0  0  0  0  0  0  0  0  0
   -0.5580    9.0020   -9.1440 C   0  0  0  0  0  0  0  0  0  0  0  0
  1  2  1  0
  2  3  2  0
  2  4  1  0
  2  5  1  0
  2  6  1  0
  4  7  1  0
  6  8  1  0
  6  9  1  0
  7 10  1  0
  8 11  1  0
  9 12  1  0
 11 12  2  0
 11 13  1  0
 12 14  1  0
 10 15  1  0
 13 16  2  0
 14 17  2  0
 16 17  1  0
 15 18  1  0
 15 19  1  0
 18 20  1  0
 19 21  1  0
 20 22  1  0
 21 22  1  0
M  END
