mac-x0328-diamond-x0844_0_A
     RDKit          3D

 10 10  0  0  0  0  0  0  0  0999 V2000
   -1.8800   14.7450   -3.8370 O   0  0  0  0  0  0  0  0  0  0  0  0
   -1.9220   14.7490   -2.4880 C   0  0  0  0  0  0  0  0  0  0  0  0
   -0.9350   14.6460   -1.7840 O   0  0  0  0  0  0  0  0  0  0  0  0
   -3.2950   14.8920   -1.9430 C   0  0  0  0  0  0  0  0  0  0  0  0
   -3.4660   14.8390   -0.5530 C   0  0  0  0  0  0  0  0  0  0  0  0
   -4.3980   15.0720   -2.7780 C   0  0  0  0  0  0  0  0  0  0  0  0
   -4.7420   14.9580   -0.0010 C   0  0  0  0  0  0  0  0  0  0  0  0
   -5.6750   15.1940   -2.2250 C   0  0  0  0  0  0  0  0  0  0  0  0
   -5.8380   15.1340   -0.8430 C   0  0  0  0  0  0  0  0  0  0  0  0
   -7.1020   15.2480   -0.3510 O   0  0  0  0  0  0  0  0  0  0  0  0
  1  2  1  0
  2  3  2  0
  2  4  1  0
  4  5  2  0
  4  6  1  0
  5  7  1  0
  6  8  2  0
  7  9  2  0
  8  9  1  0
  9 10  1  0
M  END
