mac-x0333-diamond-x0967_0_A
     RDKit          3D

 10 11  0  0  0  0  0  0  0  0999 V2000
   -2.5300   15.1680   -2.7820 O   0  0  0  0  0  0  0  0  0  0  0  0
   -3.4540   15.0960   -1.7730 C   0  0  0  0  0  0  0  0  0  0  0  0
   -2.9780   15.0160   -0.4550 C   0  0  0  0  0  0  0  0  0  0  0  0
   -4.8190   15.1030   -2.0540 C   0  0  0  0  0  0  0  0  0  0  0  0
   -5.6710   15.0230   -0.9790 C   0  0  0  0  0  0  0  0  0  0  0  0
   -3.8700   14.9440    0.6140 C   0  0  0  0  0  0  0  0  0  0  0  0
   -5.2140   14.9470    0.3170 C   0  0  0  0  0  0  0  0  0  0  0  0
   -7.0330   15.0040   -1.0310 O   0  0  0  0  0  0  0  0  0  0  0  0
   -6.2350   14.8780    1.2080 O   0  0  0  0  0  0  0  0  0  0  0  0
   -7.3240   14.5920    0.3170 C   0  0  0  0  0  0  0  0  0  0  0  0
  1  2  1  0
  2  3  2  0
  2  4  1  0
  4  5  2  0
  3  6  1  0
  5  7  1  0
  6  7  2  0
  5  8  1  0
  7  9  1  0
  8 10  1  0
  9 10  1  0
M  END
