mac-x0206-diamond-x0711_0_A
     RDKit          3D

 23 24  0  0  0  0  0  0  0  0999 V2000
   -4.0280   15.3710    1.8830 N   0  0  0  0  0  0  0  0  0  0  0  0
   -4.9990   15.4650    0.9550 C   0  0  0  0  0  0  0  0  0  0  0  0
   -4.7720   16.0440   -0.1070 O   0  0  0  0  0  0  0  0  0  0  0  0
   -6.3590   14.8460    1.2220 C   0  0  0  0  0  0  0  0  0  0  0  0
   -7.0810   14.3320    0.1640 C   0  0  0  0  0  0  0  0  0  0  0  0
   -6.8990   14.7970    2.5100 C   0  0  0  0  0  0  0  0  0  0  0  0
   -6.3900   14.4830   -1.0000 N   0  0  0  0  0  0  0  0  0  0  0  0
   -8.3340   13.7610    0.3390 C   0  0  0  0  0  0  0  0  0  0  0  0
   -8.1540   14.2290    2.7110 C   0  0  0  0  0  0  0  0  0  0  0  0
   -5.2160   14.0070   -0.7570 C   0  0  0  0  0  0  0  0  0  0  0  0
   -8.8760   13.7090    1.6280 C   0  0  0  0  0  0  0  0  0  0  0  0
   -4.8340   13.3300    0.3940 N   0  0  0  0  0  0  0  0  0  0  0  0
   -4.1630   14.2750   -1.7320 C   0  0  0  0  0  0  0  0  0  0  0  0
   -4.4200   14.6720   -3.0390 C   0  0  0  0  0  0  0  0  0  0  0  0
   -2.8650   14.1350   -1.2610 C   0  0  0  0  0  0  0  0  0  0  0  0
   -3.3430   14.9340   -3.8810 C   0  0  0  0  0  0  0  0  0  0  0  0
   -1.7990   14.3960   -2.0970 C   0  0  0  0  0  0  0  0  0  0  0  0
   -2.0370   14.7990   -3.4090 C   0  0  0  0  0  0  0  0  0  0  0  0
   -0.9020   15.0590   -4.2230 N   0  0  0  0  0  0  0  0  0  0  0  0
    0.4260   14.0280   -4.1410 S   0  0  0  0  0  0  0  0  0  0  0  0
    0.0860   12.9390   -5.5060 C   0  0  0  0  0  0  0  0  0  0  0  0
    1.6450   14.7530   -4.4010 O   0  0  0  0  0  0  0  0  0  0  0  0
    0.2600   13.2590   -2.9240 O   0  0  0  0  0  0  0  0  0  0  0  0
  1  2  1  0
  2  3  2  0
  2  4  1  0
  4  5  2  0
  4  6  1  0
  5  7  1  0
  5  8  1  0
  6  9  2  0
  7 10  2  3
  8 11  2  0
  9 11  1  0
 10 12  1  0
 10 13  1  0
 13 14  2  0
 13 15  1  0
 14 16  1  0
 15 17  2  0
 16 18  2  0
 17 18  1  0
 18 19  1  0
 20 19  1  0
 20 21  1  0
 20 22  2  0
 20 23  2  0
M  END
