mac-x0263-diamond-x0962_2_B
     RDKit          3D

 19 21  0  0  0  0  0  0  0  0999 V2000
  -11.9170   14.4530    1.7500 O   0  0  0  0  0  0  0  0  0  0  0  0
  -11.2100   15.4840    2.2410 C   0  0  0  0  0  0  0  0  0  0  0  0
  -11.7420   16.4580    2.7620 O   0  0  0  0  0  0  0  0  0  0  0  0
   -9.7160   15.3800    2.1580 C   0  0  2  0  0  0  0  0  0  0  0  0
   -9.2030   14.3760    1.1010 C   0  0  0  0  0  0  0  0  0  0  0  0
   -9.2390   15.0430    3.5370 C   0  0  2  0  0  0  0  0  0  0  0  0
   -7.7880   14.6010    0.6360 C   0  0  0  0  0  0  0  0  0  0  0  0
   -8.6430   16.1570    4.2840 N   0  0  0  0  0  0  0  0  0  0  0  0
   -8.1950   13.9630    3.5060 C   0  0  0  0  0  0  0  0  0  0  0  0
   -7.4870   14.9210   -0.6630 N   0  0  0  0  0  0  0  0  0  0  0  0
   -6.6810   14.5340    1.3570 N   0  0  0  0  0  0  0  0  0  0  0  0
   -7.5000   15.5720    4.9610 C   0  0  0  0  0  0  0  0  0  0  0  0
   -7.5250   14.1420    4.7600 N   0  0  0  0  0  0  0  0  0  0  0  0
   -6.1260   15.0650   -0.7700 C   0  0  0  0  0  0  0  0  0  0  0  0
   -5.6410   14.8200    0.5020 C   0  0  0  0  0  0  0  0  0  0  0  0
   -5.3090   15.3820   -1.8480 C   0  0  0  0  0  0  0  0  0  0  0  0
   -4.2600   14.8900    0.7370 C   0  0  0  0  0  0  0  0  0  0  0  0
   -3.9390   15.4470   -1.6020 C   0  0  0  0  0  0  0  0  0  0  0  0
   -3.4160   15.2050   -0.3320 C   0  0  0  0  0  0  0  0  0  0  0  0
  1  2  1  0
  2  3  2  0
  2  4  1  0
  4  5  1  6
  4  6  1  0
  5  7  1  0
  6  8  1  0
  6  9  1  6
  7 10  1  0
  7 11  2  0
  8 12  1  0
  9 13  1  0
 12 13  1  0
 10 14  1  0
 11 15  1  0
 14 15  2  0
 14 16  1  0
 15 17  1  0
 16 18  2  0
 17 19  2  0
 18 19  1  0
M  END
