mac-x0381-mac-x0564
     RDKit          3D

 30 34  0  0  0  0  0  0  0  0999 V2000
   -7.9640   13.2860    4.2020 N   0  0  0  0  0  0  0  0  0  0  0  0
   -8.0670   14.5320    3.6460 C   0  0  0  0  0  0  0  0  0  0  0  0
   -6.9960   15.1750    3.3570 N   0  0  0  0  0  0  0  0  0  0  0  0
   -9.4110   15.0890    3.3600 C   0  0  0  0  0  0  0  0  0  0  0  0
   -5.6150   14.7360    3.5200 C   0  0  0  0  0  0  0  0  0  0  0  0
   -9.5470   15.8530    2.1990 C   0  0  0  0  0  0  0  0  0  0  0  0
  -10.4970   14.8620    4.2000 C   0  0  0  0  0  0  0  0  0  0  0  0
   -4.8230   15.3830    2.3790 C   0  0  0  0  0  0  0  0  0  0  0  0
  -10.7790   16.4070    1.8540 C   0  0  0  0  0  0  0  0  0  0  0  0
  -11.7410   15.4100    3.8610 C   0  0  0  0  0  0  0  0  0  0  0  0
   -3.9280   14.4950    1.5350 C   0  0  0  0  0  0  0  0  0  0  0  0
  -11.8990   16.1820    2.6930 C   0  0  0  0  0  0  0  0  0  0  0  0
  -10.9230   17.1780    0.6910 C   0  0  0  0  0  0  0  0  0  0  0  0
  -13.1360   16.7350    2.3350 C   0  0  0  0  0  0  0  0  0  0  0  0
  -12.1600   17.7220    0.3530 C   0  0  0  0  0  0  0  0  0  0  0  0
   -4.2090   14.7440    0.0550 C   0  0  0  0  0  0  0  0  0  0  0  0
  -13.2670   17.5010    1.1720 C   0  0  0  0  0  0  0  0  0  0  0  0
   -5.5080   15.0480   -0.4280 C   0  0  0  0  0  0  0  0  0  0  0  0
   -3.2240   14.6870   -0.9380 C   0  0  0  0  0  0  0  0  0  0  0  0
   -5.7660   15.2580   -1.7900 C   0  0  0  0  0  0  0  0  0  0  0  0
   -3.4470   14.8850   -2.3040 C   0  0  0  0  0  0  0  0  0  0  0  0
   -1.9010   14.4220   -0.7070 O   0  0  0  0  0  0  0  0  0  0  0  0
   -1.2910   14.4470   -1.9210 C   0  0  0  0  0  0  0  0  0  0  0  0
   -2.1910   14.7230   -2.9110 C   0  0  0  0  0  0  0  0  0  0  0  0
   -4.7430   15.1720   -2.7370 C   0  0  0  0  0  0  0  0  0  0  0  0
    0.1120   14.2080   -2.1360 C   0  0  0  0  0  0  0  0  0  0  0  0
   -1.7680   14.7860   -4.1930 N   0  0  0  0  0  0  0  0  0  0  0  0
    0.9380   14.0830   -1.2470 O   0  0  0  0  0  0  0  0  0  0  0  0
   -0.4590   14.3950   -4.3780 C   0  0  0  0  0  0  0  0  0  0  0  0
    0.4430   14.1200   -3.4880 N   0  0  0  0  0  0  0  0  0  0  0  0
  1  2  1  0
  2  3  2  3
  2  4  1  0
  3  5  1  0
  4  6  2  0
  4  7  1  0
  5  8  1  0
  6  9  1  0
  7 10  2  0
  8 11  1  0
  9 12  2  0
 10 12  1  0
  9 13  1  0
 12 14  1  0
 13 15  2  0
 11 16  1  0
 14 17  2  0
 15 17  1  0
 16 18  2  0
 16 19  1  0
 18 20  1  0
 19 21  2  0
 19 22  1  0
 22 23  1  0
 21 24  1  0
 23 24  2  0
 20 25  2  0
 21 25  1  0
 23 26  1  0
 24 27  1  0
 26 28  2  0
 27 29  1  0
 26 30  1  0
 29 30  2  0
M  END
