mac-x0404-mac-x0116
     RDKit          3D

 33 37  0  0  0  0  0  0  0  0999 V2000
    2.1370   12.5460   -2.1180 O   0  0  0  0  0  0  0  0  0  0  0  0
    1.0100   12.4010   -2.9300 C   0  0  0  0  0  0  0  0  0  0  0  0
    0.5610   11.0620   -2.8230 O   0  0  0  0  0  0  0  0  0  0  0  0
    1.4010   12.6910   -4.3990 C   0  0  0  0  0  0  0  0  0  0  0  0
   -0.0170   13.4060   -2.4030 C   0  0  0  0  0  0  0  0  0  0  0  0
    1.1940   14.0710   -4.6610 O   0  0  0  0  0  0  0  0  0  0  0  0
    0.4230   14.2240   -1.1860 C   0  0  0  0  0  0  0  0  0  0  0  0
   -0.0890   14.4990   -4.8870 C   0  0  0  0  0  0  0  0  0  0  0  0
   -0.6340   14.4120   -0.2350 N   0  0  0  0  0  0  0  0  0  0  0  0
   -0.2260   15.8820   -5.1030 C   0  0  0  0  0  0  0  0  0  0  0  0
   -1.2170   13.6760   -4.9150 C   0  0  0  0  0  0  0  0  0  0  0  0
   -1.9200   14.6710   -0.5780 C   0  0  0  0  0  0  0  0  0  0  0  0
   -0.5550   14.3660    1.1310 C   0  0  0  0  0  0  0  0  0  0  0  0
   -1.5020   16.4330   -5.3500 C   0  0  0  0  0  0  0  0  0  0  0  0
   -2.4770   14.2230   -5.1560 C   0  0  0  0  0  0  0  0  0  0  0  0
    0.8790   16.7370   -5.0860 C   0  0  0  0  0  0  0  0  0  0  0  0
   -2.4170   14.7980   -1.8200 N   0  0  0  0  0  0  0  0  0  0  0  0
   -2.5950   14.7730    0.6210 C   0  0  0  0  0  0  0  0  0  0  0  0
   -1.7270   14.5760    1.6880 N   0  0  0  0  0  0  0  0  0  0  0  0
   -2.6200   15.5940   -5.3710 C   0  0  0  0  0  0  0  0  0  0  0  0
   -1.6280   17.8040   -5.5750 C   0  0  0  0  0  0  0  0  0  0  0  0
    0.7470   18.1010   -5.3120 C   0  0  0  0  0  0  0  0  0  0  0  0
   -3.7320   15.0610   -1.7820 C   0  0  0  0  0  0  0  0  0  0  0  0
   -3.9740   15.0440    0.5320 C   0  0  0  0  0  0  0  0  0  0  0  0
   -4.7930   15.1700    1.6510 N   0  0  0  0  0  0  0  0  0  0  0  0
   -0.5150   18.6300   -5.5590 C   0  0  0  0  0  0  0  0  0  0  0  0
   -4.5190   15.1880   -0.7020 N   0  0  0  0  0  0  0  0  0  0  0  0
   -6.1660   14.7300    1.4360 C   0  0  0  0  0  0  0  0  0  0  0  0
   -6.4990   13.2780    1.5530 C   0  0  0  0  0  0  0  0  0  0  0  0
   -6.4010   12.5370    0.4090 O   0  0  0  0  0  0  0  0  0  0  0  0
   -6.9090   12.4730    2.5960 C   0  0  0  0  0  0  0  0  0  0  0  0
   -7.0760   11.1820    2.0660 C   0  0  0  0  0  0  0  0  0  0  0  0
   -6.7540   11.2700    0.7340 C   0  0  0  0  0  0  0  0  0  0  0  0
  2  1  1  0
  2  3  1  0
  2  4  1  0
  2  5  1  0
  4  6  1  0
  5  7  1  0
  6  8  1  0
  7  9  1  0
  8 10  1  0
  8 11  2  0
  9 12  1  0
  9 13  1  0
 10 14  2  0
 11 15  1  0
 10 16  1  0
 12 17  2  0
 12 18  1  0
 13 19  2  0
 18 19  1  0
 14 20  1  0
 15 20  2  0
 14 21  1  0
 16 22  2  0
 17 23  1  0
 18 24  2  0
 24 25  1  0
 21 26  2  0
 22 26  1  0
 23 27  2  0
 24 27  1  0
 25 28  1  0
 28 29  1  0
 29 30  1  0
 29 31  2  0
 31 32  1  0
 30 33  1  0
 32 33  2  0
M  END
