mac-x0546-mac-x0226
     RDKit          3D

 26 29  0  0  0  0  0  0  0  0999 V2000
   -4.4480   15.4030   -6.0560 C   0  0  0  0  0  0  0  0  0  0  0  0
   -3.6580   16.5520   -5.7570 O   0  0  0  0  0  0  0  0  0  0  0  0
   -2.3550   16.3260   -5.5270 C   0  0  0  0  0  0  0  0  0  0  0  0
   -1.8880   15.2390   -4.9260 C   0  0  0  0  0  0  0  0  0  0  0  0
   -1.4560   17.3780   -6.0270 C   0  0  0  0  0  0  0  0  0  0  0  0
   -0.4410   15.0590   -4.8030 C   0  0  1  0  0  0  0  0  0  0  0  0
   -0.1340   17.4260   -5.7470 C   0  0  0  0  0  0  0  0  0  0  0  0
    0.3290   16.3510   -4.8630 C   0  0  0  0  0  0  0  0  0  0  0  0
    0.2150   14.5110   -3.6060 C   0  0  0  0  0  0  0  0  0  0  0  0
   -0.2600   13.3030   -2.8770 C   0  0  0  0  0  0  0  0  0  0  0  0
    1.3610   16.4050   -4.1100 N   0  0  0  0  0  0  0  0  0  0  0  0
    1.2720   15.2750   -3.3370 C   0  0  0  0  0  0  0  0  0  0  0  0
    0.5020   12.0370   -3.1210 C   0  0  0  0  0  0  0  0  0  0  0  0
    1.7300   12.1630   -2.4450 O   0  0  0  0  0  0  0  0  0  0  0  0
   -0.1590   10.8970   -2.5700 O   0  0  0  0  0  0  0  0  0  0  0  0
    0.6580   11.8780   -4.6070 C   0  0  1  0  0  0  0  0  0  0  0  0
    1.9680   12.3890   -5.1550 C   0  0  0  0  0  0  0  0  0  0  0  0
    0.5190   10.5210   -5.2230 C   0  0  0  0  0  0  0  0  0  0  0  0
    1.9240   11.9590   -6.5330 N   0  0  0  0  0  0  0  0  0  0  0  0
    1.0820   10.8260   -6.5340 N   0  0  0  0  0  0  0  0  0  0  0  0
    0.3950   10.4540   -7.7030 C   0  0  0  0  0  0  0  0  0  0  0  0
   -0.7610    9.6680   -7.6760 C   0  0  0  0  0  0  0  0  0  0  0  0
    0.8410   10.8560   -8.9700 C   0  0  0  0  0  0  0  0  0  0  0  0
   -1.4280    9.3020   -8.8500 C   0  0  0  0  0  0  0  0  0  0  0  0
    0.1910   10.5010  -10.1410 C   0  0  0  0  0  0  0  0  0  0  0  0
   -0.9460    9.7210  -10.0850 C   0  0  0  0  0  0  0  0  0  0  0  0
  1  2  1  0
  2  3  1  0
  3  4  2  0
  3  5  1  0
  6  4  1  1
  5  7  2  0
  6  8  1  0
  7  8  1  0
  6  9  1  0
  9 10  1  0
  8 11  2  0
  9 12  2  0
 11 12  1  0
 10 13  1  0
 13 14  1  0
 13 15  1  0
 16 13  1  1
 16 17  1  0
 16 18  1  0
 17 19  1  0
 18 20  1  0
 19 20  1  0
 20 21  1  0
 21 22  2  0
 21 23  1  0
 22 24  1  0
 23 25  2  0
 24 26  2  0
 25 26  1  0
M  END
