mac-x0375-diamond-x0662_0_A
     RDKit          3D

 27 29  0  0  0  0  0  0  0  0999 V2000
    1.4320   12.9730   -2.9920 O   0  0  0  0  0  0  0  0  0  0  0  0
    0.9760   11.9920   -3.7920 C   0  0  0  0  0  0  0  0  0  0  0  0
    0.4800   11.0010   -3.2920 O   0  0  0  0  0  0  0  0  0  0  0  0
    1.1390   12.2700   -5.2730 C   0  0  0  0  0  0  0  0  0  0  0  0
   -0.0310   11.7500   -6.1400 C   0  0  2  0  0  0  0  0  0  0  0  0
   -0.9000   12.8700   -6.2570 O   0  0  0  0  0  0  0  0  0  0  0  0
   -1.0190   10.7160   -5.6890 C   0  0  0  0  0  0  0  0  0  0  0  0
    0.1170   10.9890   -7.4690 C   0  0  0  0  0  0  0  0  0  0  0  0
   -0.7370    9.3940   -6.0960 C   0  0  0  0  0  0  0  0  0  0  0  0
   -2.1700   10.9820   -4.9690 C   0  0  0  0  0  0  0  0  0  0  0  0
   -0.9930   10.1400   -7.7220 C   0  0  0  0  0  0  0  0  0  0  0  0
    1.1320   11.0090   -8.4270 C   0  0  0  0  0  0  0  0  0  0  0  0
   -1.6030    8.3640   -5.7950 C   0  0  0  0  0  0  0  0  0  0  0  0
   -3.0410    9.9400   -4.6670 C   0  0  0  0  0  0  0  0  0  0  0  0
   -1.0990    9.3590   -8.8560 C   0  0  0  0  0  0  0  0  0  0  0  0
    1.0100   10.2340   -9.5890 C   0  0  0  0  0  0  0  0  0  0  0  0
    1.9490   10.2380  -10.6050 N   0  0  0  0  0  0  0  0  0  0  0  0
   -2.7550    8.6410   -5.0840 C   0  0  0  0  0  0  0  0  0  0  0  0
   -0.0960    9.4100   -9.7960 C   0  0  0  0  0  0  0  0  0  0  0  0
    2.3910    9.2320  -11.4120 C   0  0  0  0  0  0  0  0  0  0  0  0
    2.2900    8.0290  -11.2250 O   0  0  0  0  0  0  0  0  0  0  0  0
    3.0630    9.8040  -12.5950 C   0  0  0  0  0  0  0  0  0  0  0  0
    2.8470   11.0840  -13.1790 C   0  0  0  0  0  0  0  0  0  0  0  0
    4.0120    9.1190  -13.2630 N   0  0  0  0  0  0  0  0  0  0  0  0
    4.3870    9.9600  -14.2460 N   0  0  0  0  0  0  0  0  0  0  0  0
    3.7170   11.1490  -14.2390 C   0  0  0  0  0  0  0  0  0  0  0  0
    5.4160    9.5490  -15.1690 C   0  0  0  0  0  0  0  0  0  0  0  0
  1  2  1  0
  2  3  2  0
  2  4  1  0
  4  5  1  0
  5  6  1  6
  5  7  1  0
  5  8  1  0
  7  9  2  0
  7 10  1  0
  8 11  2  0
  8 12  1  0
  9 13  1  0
 10 14  2  0
 11 15  1  0
 12 16  2  0
 16 17  1  0
 13 18  2  0
 14 18  1  0
 15 19  2  0
 16 19  1  0
 17 20  1  0
 20 21  2  0
 20 22  1  0
 22 23  1  0
 22 24  2  0
 24 25  1  0
 23 26  2  0
 25 26  1  0
 25 27  1  0
M  END
