mac-x0213-diamond-x0104_0_A
     RDKit          3D

 30 33  0  0  0  0  0  0  0  0999 V2000
   -0.3610   12.0530   -3.6680 O   0  0  0  0  0  0  0  0  0  0  0  0
    0.3070   12.9000   -2.8690 C   0  0  0  0  0  0  0  0  0  0  0  0
    1.0980   12.4760   -2.0520 O   0  0  0  0  0  0  0  0  0  0  0  0
   -0.0140   14.3520   -3.0720 C   0  0  2  0  0  0  0  0  0  0  0  0
   -1.4780   14.8080   -3.3670 C   0  0  2  0  0  0  0  0  0  0  0  0
    0.9710   15.0500   -4.0330 C   0  0  0  0  0  0  0  0  0  0  0  0
   -2.6050   13.8840   -3.8400 C   0  0  0  0  0  0  0  0  0  0  0  0
   -1.2410   15.9350   -4.3440 C   0  0  0  0  0  0  0  0  0  0  0  0
    0.1070   16.0810   -4.6860 C   0  0  0  0  0  0  0  0  0  0  0  0
   -3.7430   13.7120   -2.8080 C   0  0  0  0  0  0  0  0  0  0  0  0
   -2.2060   16.7760   -4.8630 C   0  0  0  0  0  0  0  0  0  0  0  0
    0.5080   17.0920   -5.5410 C   0  0  0  0  0  0  0  0  0  0  0  0
   -4.4130   14.9280   -2.4240 O   0  0  0  0  0  0  0  0  0  0  0  0
   -1.8130   17.7930   -5.7280 C   0  0  0  0  0  0  0  0  0  0  0  0
   -0.4610   17.9520   -6.0600 C   0  0  0  0  0  0  0  0  0  0  0  0
   -4.9810   14.8880   -1.1570 C   0  0  0  0  0  0  0  0  0  0  0  0
   -4.1820   14.8780   -0.0770 N   0  0  0  0  0  0  0  0  0  0  0  0
   -6.3690   14.8570   -1.0680 C   0  0  0  0  0  0  0  0  0  0  0  0
   -4.7770   14.8340    1.1390 C   0  0  0  0  0  0  0  0  0  0  0  0
   -6.9620   14.8050    0.2020 C   0  0  0  0  0  0  0  0  0  0  0  0
   -6.1530   14.7960    1.3450 C   0  0  0  0  0  0  0  0  0  0  0  0
   -6.7420   14.7480    2.6320 N   0  0  0  0  0  0  0  0  0  0  0  0
   -8.0190   15.1060    3.0590 C   0  0  0  0  0  0  0  0  0  0  0  0
   -8.0680   15.1500    4.4530 N   0  0  0  0  0  0  0  0  0  0  0  0
   -8.9500   15.3420    2.3030 O   0  0  0  0  0  0  0  0  0  0  0  0
   -9.2020   15.1110    5.2490 C   0  0  0  0  0  0  0  0  0  0  0  0
   -9.2300   15.2080    6.6270 C   0  0  0  0  0  0  0  0  0  0  0  0
  -10.7650   14.9310    4.6030 S   0  0  0  0  0  0  0  0  0  0  0  0
  -11.4930   14.9800    6.1500 C   0  0  0  0  0  0  0  0  0  0  0  0
  -10.5580   15.1320    7.1500 C   0  0  0  0  0  0  0  0  0  0  0  0
  1  2  1  0
  2  3  2  0
  4  2  1  6
  4  5  1  0
  4  6  1  0
  5  7  1  6
  5  8  1  0
  6  9  1  0
  8  9  2  0
  7 10  1  0
  8 11  1  0
  9 12  1  0
 10 13  1  0
 11 14  2  0
 12 15  2  0
 14 15  1  0
 13 16  1  0
 16 17  2  0
 16 18  1  0
 17 19  1  0
 18 20  2  0
 19 21  2  0
 20 21  1  0
 21 22  1  0
 22 23  1  0
 23 24  1  0
 23 25  2  0
 24 26  1  0
 26 27  2  0
 26 28  1  0
 28 29  1  0
 27 30  1  0
 29 30  2  0
M  END
