mac-x0338-mac-x0271
     RDKit          3D

 15 16  0  0  0  0  0  0  0  0999 V2000
   -3.3550   14.1290    1.9910 N   0  0  0  0  0  0  0  0  0  0  0  0
   -4.3610   13.6590    1.2060 C   0  0  0  0  0  0  0  0  0  0  0  0
   -5.2450   12.9340    1.6360 O   0  0  0  0  0  0  0  0  0  0  0  0
   -4.3400   14.1700   -0.2010 C   0  0  1  0  0  0  0  0  0  0  0  0
   -3.8830   13.3650   -1.3170 N   0  0  0  0  0  0  0  0  0  0  0  0
   -5.6090   14.9820   -0.3590 C   0  0  1  0  0  0  0  0  0  0  0  0
   -3.6520   14.2100   -2.3660 C   0  0  0  0  0  0  0  0  0  0  0  0
   -5.2390   15.8460   -1.4990 N   0  0  0  0  0  0  0  0  0  0  0  0
   -6.9160   14.3430   -0.5560 O   0  0  0  0  0  0  0  0  0  0  0  0
   -5.3900   15.4370    1.0480 C   0  0  0  0  0  0  0  0  0  0  0  0
   -4.2960   15.3850   -2.4500 C   0  0  0  0  0  0  0  0  0  0  0  0
   -6.2030   15.0850    2.0710 C   0  0  0  0  0  0  0  0  0  0  0  0
   -7.8860   14.4510    0.4080 C   0  0  0  0  0  0  0  0  0  0  0  0
   -9.0700   14.6970    0.1490 O   0  0  0  0  0  0  0  0  0  0  0  0
   -7.4080   14.2720    1.8300 C   0  0  0  0  0  0  0  0  0  0  0  0
  1  2  1  0
  2  3  2  0
  4  2  1  1
  4  5  1  0
  4  6  1  0
  5  7  1  0
  6  8  1  0
  6  9  1  0
  6 10  1  1
  7 11  2  0
  8 11  1  0
 10 12  2  0
  9 13  1  0
 13 14  2  0
 12 15  1  0
 13 15  1  0
M  END
