mac-x0415-mac-x0437
     RDKit          3D

 24 27  0  0  0  0  0  0  0  0999 V2000
    0.4540   11.2470   -2.7380 O   0  0  0  0  0  0  0  0  0  0  0  0
    0.9700   12.4860   -2.9120 C   0  0  0  0  0  0  0  0  0  0  0  0
    1.7620   12.9530   -2.1230 O   0  0  0  0  0  0  0  0  0  0  0  0
    0.4370   13.1960   -4.1480 C   0  0  2  0  0  0  0  0  0  0  0  0
    0.6950   12.5550   -5.4860 C   0  0  0  0  0  0  0  0  0  0  0  0
    0.5090   14.6450   -4.2200 C   0  0  0  0  0  0  0  0  0  0  0  0
    1.6230   15.5860   -4.1280 C   0  0  0  0  0  0  0  0  0  0  0  0
   -0.4820   15.4460   -4.4720 C   0  0  0  0  0  0  0  0  0  0  0  0
   -0.2940   11.5670   -5.7560 N   0  0  0  0  0  0  0  0  0  0  0  0
    1.3290   16.8480   -4.3070 N   0  0  0  0  0  0  0  0  0  0  0  0
   -0.1090   16.8720   -4.4610 C   0  0  1  0  0  0  0  0  0  0  0  0
   -1.8180   15.0620   -4.7550 C   0  0  0  0  0  0  0  0  0  0  0  0
   -1.4720   11.3850   -5.0790 C   0  0  0  0  0  0  0  0  0  0  0  0
   -0.2110   10.6470   -6.7310 C   0  0  0  0  0  0  0  0  0  0  0  0
   -0.7930   17.6320   -5.5350 C   0  0  0  0  0  0  0  0  0  0  0  0
   -2.5350   15.8760   -5.5250 C   0  0  0  0  0  0  0  0  0  0  0  0
   -2.1510   10.3810   -5.5730 N   0  0  0  0  0  0  0  0  0  0  0  0
   -1.3730    9.9090   -6.6020 C   0  0  0  0  0  0  0  0  0  0  0  0
    0.7630   10.4030   -7.6920 C   0  0  0  0  0  0  0  0  0  0  0  0
   -4.2500   15.3490   -6.0140 Br  0  0  0  0  0  0  0  0  0  0  0  0
   -1.9670   17.1480   -6.0190 C   0  0  0  0  0  0  0  0  0  0  0  0
   -1.5950    8.8450   -7.4770 C   0  0  0  0  0  0  0  0  0  0  0  0
    0.5310    9.3430   -8.5550 C   0  0  0  0  0  0  0  0  0  0  0  0
   -0.6250    8.5720   -8.4550 C   0  0  0  0  0  0  0  0  0  0  0  0
  1  2  1  0
  2  3  2  0
  2  4  1  0
  4  5  1  6
  4  6  1  0
  6  7  1  0
  6  8  2  0
  5  9  1  0
  7 10  2  0
  8 11  1  0
 10 11  1  0
  8 12  1  0
  9 13  1  0
  9 14  1  0
 11 15  1  6
 12 16  2  0
 13 17  2  0
 14 18  2  0
 17 18  1  0
 14 19  1  0
 16 20  1  0
 15 21  2  0
 16 21  1  0
 18 22  1  0
 19 23  2  0
 22 24  2  0
 23 24  1  0
M  END
