mac-x0302-diamond-x0849_0_A
     RDKit          3D

 19 20  0  0  0  0  0  0  0  0999 V2000
    1.6740   14.3530   -3.7870 O   0  0  0  0  0  0  0  0  0  0  0  0
    0.6130   14.1280   -2.9910 C   0  0  0  0  0  0  0  0  0  0  0  0
    0.7250   13.5370   -1.9250 O   0  0  0  0  0  0  0  0  0  0  0  0
   -0.7270   14.6560   -3.5010 C   0  0  0  0  0  0  0  0  0  0  0  0
   -1.9060   14.2320   -2.7680 N   0  0  0  0  0  0  0  0  0  0  0  0
   -3.0770   14.9310   -2.7840 C   0  0  0  0  0  0  0  0  0  0  0  0
   -3.5250   15.3620   -3.8420 O   0  0  0  0  0  0  0  0  0  0  0  0
   -3.7600   15.1440   -1.4520 C   0  0  1  0  0  0  0  0  0  0  0  0
   -5.0690   14.3370   -1.3260 C   0  0  0  0  0  0  0  0  0  0  0  0
   -2.8260   15.1110   -0.2030 C   0  0  2  0  0  0  0  0  0  0  0  0
   -5.7140   14.4450    0.0610 C   0  0  2  0  0  0  0  0  0  0  0  0
   -3.6840   15.6820    0.9000 C   0  0  0  0  0  0  0  0  0  0  0  0
   -1.3690   15.7150   -0.4160 C   0  0  0  0  0  0  0  0  0  0  0  0
   -2.5660   13.7360    0.4160 C   0  0  0  0  0  0  0  0  0  0  0  0
   -7.0360   14.9630   -0.0830 O   0  0  0  0  0  0  0  0  0  0  0  0
   -4.9770   15.3460    1.0090 C   0  0  0  0  0  0  0  0  0  0  0  0
   -1.7350   13.9750    1.5970 N   0  0  0  0  0  0  0  0  0  0  0  0
   -0.2120   15.1600    0.3890 C   0  0  0  0  0  0  0  0  0  0  0  0
   -0.4540   14.3180    1.3700 C   0  0  0  0  0  0  0  0  0  0  0  0
  1  2  1  0
  2  3  2  0
  2  4  1  0
  4  5  1  0
  5  6  1  0
  6  7  2  0
  8  6  1  6
  8  9  1  0
  8 10  1  0
  9 11  1  0
 10 12  1  1
 10 13  1  0
 10 14  1  0
 11 15  1  6
 11 16  1  0
 12 16  2  0
 14 17  1  0
 13 18  1  0
 17 19  1  0
 18 19  2  0
M  END
