mac-x0303-mac-x0433
     RDKit          3D

 14 15  0  0  0  0  0  0  0  0999 V2000
   -8.4190   12.9320    2.7010 N   0  0  0  0  0  0  0  0  0  0  0  0
   -8.5570   14.4910    2.0860 S   0  0  0  0  0  0  0  0  0  0  0  0
   -8.3500   15.4410    3.1520 O   0  0  0  0  0  0  0  0  0  0  0  0
   -9.7140   14.5410    1.2260 O   0  0  0  0  0  0  0  0  0  0  0  0
   -7.1660   14.6950    1.0230 C   0  0  0  0  0  0  0  0  0  0  0  0
   -7.2540   14.7800   -0.3390 N   0  0  0  0  0  0  0  0  0  0  0  0
   -5.9140   14.7940    1.4260 N   0  0  0  0  0  0  0  0  0  0  0  0
   -5.9840   14.9390   -0.8380 C   0  0  0  0  0  0  0  0  0  0  0  0
   -5.1720   14.9440    0.2890 C   0  0  0  0  0  0  0  0  0  0  0  0
   -5.4950   15.0710   -2.1330 C   0  0  0  0  0  0  0  0  0  0  0  0
   -3.7900   15.0870    0.1550 C   0  0  0  0  0  0  0  0  0  0  0  0
   -6.3060   15.0530   -3.2660 N   0  0  0  0  0  0  0  0  0  0  0  0
   -4.1070   15.2140   -2.2470 C   0  0  0  0  0  0  0  0  0  0  0  0
   -3.2700   15.2200   -1.1300 C   0  0  0  0  0  0  0  0  0  0  0  0
  2  1  1  0
  2  3  2  0
  2  4  2  0
  2  5  1  0
  5  6  1  0
  5  7  2  0
  6  8  1  0
  7  9  1  0
  8  9  2  0
  8 10  1  0
  9 11  1  0
 10 12  1  0
 10 13  2  0
 11 14  2  0
 13 14  1  0
M  END
