mac-x0380-diamond-x0895_1_A
     RDKit          3D

 16 17  0  0  0  0  0  0  0  0999 V2000
   -1.4280   14.7670   -2.5380 O   0  0  0  0  0  0  0  0  0  0  0  0
   -2.7320   15.0290   -2.7630 C   0  0  0  0  0  0  0  0  0  0  0  0
   -3.1150   15.2660   -3.8920 O   0  0  0  0  0  0  0  0  0  0  0  0
   -3.5570   14.9900   -1.5380 C   0  0  0  0  0  0  0  0  0  0  0  0
   -4.9030   15.0970   -1.6180 C   0  0  0  0  0  0  0  0  0  0  0  0
   -2.9510   14.8260   -0.1920 C   0  0  0  0  0  0  0  0  0  0  0  0
   -1.7560   14.6590    0.0300 O   0  0  0  0  0  0  0  0  0  0  0  0
   -5.7900   15.0450   -0.4700 C   0  0  0  0  0  0  0  0  0  0  0  0
   -3.8910   14.8750    0.9880 C   0  0  0  0  0  0  0  0  0  0  0  0
   -3.4850   14.8350    2.1020 O   0  0  0  0  0  0  0  0  0  0  0  0
   -5.3310   14.9340    0.7780 C   0  0  0  0  0  0  0  0  0  0  0  0
   -7.4990   15.1110   -0.7680 S   0  0  0  0  0  0  0  0  0  0  0  0
   -6.0920   14.8560    1.9280 N   0  0  0  0  0  0  0  0  0  0  0  0
   -8.0870   14.1920    0.6730 C   0  0  0  0  0  0  0  0  0  0  0  0
   -7.4320   14.6200    1.9610 C   0  0  0  0  0  0  0  0  0  0  0  0
   -8.0710   14.7600    3.0050 O   0  0  0  0  0  0  0  0  0  0  0  0
  1  2  1  0
  2  3  2  0
  2  4  1  0
  4  5  2  0
  4  6  1  0
  6  7  2  0
  5  8  1  0
  6  9  1  0
  9 10  2  0
  8 11  2  0
  9 11  1  0
  8 12  1  0
 11 13  1  0
 12 14  1  0
 13 15  1  0
 14 15  1  0
 15 16  2  0
M  END
