mac-x0182-diamond-x0438_0_A
     RDKit          3D

 28 31  0  0  0  0  0  0  0  0999 V2000
    1.7150   11.8890   -6.9100 O   0  0  0  0  0  0  0  0  0  0  0  0
    0.7550   11.6310   -6.2240 C   0  0  0  0  0  0  0  0  0  0  0  0
    0.4630   12.2120   -5.0180 N   0  0  0  0  0  0  0  0  0  0  0  0
   -0.2440   10.6010   -6.5890 C   0  0  0  0  0  0  0  0  0  0  0  0
   -0.7690   11.4020   -4.2160 S   0  0  2  0  0  0  0  0  0  0  0  0
   -1.1580   10.3640   -5.5710 C   0  0  0  0  0  0  0  0  0  0  0  0
   -0.3230    9.9020   -7.7880 C   0  0  0  0  0  0  0  0  0  0  0  0
   -1.8540   12.4840   -3.9990 N   0  0  0  0  0  0  0  0  0  0  0  0
   -0.1100   10.5920   -3.2150 O   0  0  0  0  0  0  0  0  0  0  0  0
   -2.1790    9.4400   -5.6820 C   0  0  0  0  0  0  0  0  0  0  0  0
   -1.3490    8.9590   -7.9320 C   0  0  0  0  0  0  0  0  0  0  0  0
   -1.6460   13.5520   -2.9670 C   0  0  0  0  0  0  0  0  0  0  0  0
   -2.2680    8.7300   -6.8870 C   0  0  0  0  0  0  0  0  0  0  0  0
   -2.7280   14.6750   -2.9140 C   0  0  0  0  0  0  0  0  0  0  0  0
   -3.6070   14.7130   -1.6570 C   0  0  0  0  0  0  0  0  0  0  0  0
   -4.9900   14.5140   -1.7830 C   0  0  0  0  0  0  0  0  0  0  0  0
   -3.0540   14.9250   -0.3710 C   0  0  0  0  0  0  0  0  0  0  0  0
   -5.7530   14.5030   -0.6160 C   0  0  0  0  0  0  0  0  0  0  0  0
   -3.8560   14.9220    0.7920 C   0  0  0  0  0  0  0  0  0  0  0  0
   -7.0930   14.3050   -0.4190 N   0  0  0  0  0  0  0  0  0  0  0  0
   -5.2350   14.6930    0.6510 C   0  0  0  0  0  0  0  0  0  0  0  0
   -7.3510   14.3550    0.9330 C   0  0  0  0  0  0  0  0  0  0  0  0
   -6.2360   14.6070    1.5970 N   0  0  0  0  0  0  0  0  0  0  0  0
   -8.7180   14.1240    1.4970 C   0  0  0  0  0  0  0  0  0  0  0  0
   -9.3610   15.3830    2.5820 S   0  0  0  0  0  0  0  0  0  0  0  0
   -8.1270   15.5530    3.8530 C   0  0  0  0  0  0  0  0  0  0  0  0
  -10.5600   14.8680    3.2170 O   0  0  0  0  0  0  0  0  0  0  0  0
   -9.4470   16.6060    1.8140 O   0  0  0  0  0  0  0  0  0  0  0  0
  1  2  2  0
  2  3  1  0
  2  4  1  0
  5  3  1  6
  4  6  2  0
  5  6  1  0
  4  7  1  0
  5  8  2  0
  5  9  2  0
  6 10  1  0
  7 11  2  0
  8 12  1  0
 10 13  2  0
 11 13  1  0
 12 14  1  0
 14 15  1  0
 15 16  2  0
 15 17  1  0
 16 18  1  0
 17 19  2  0
 18 20  1  0
 18 21  2  0
 19 21  1  0
 20 22  1  0
 21 23  1  0
 22 23  2  0
 22 24  1  0
 25 24  1  0
 25 26  1  0
 25 27  2  0
 25 28  2  0
M  END
