mac-x0161-mac-x0328
     RDKit          3D

 27 30  0  0  0  0  0  0  0  0999 V2000
   -4.2780   14.8340    1.0440 N   0  0  0  0  0  0  0  0  0  0  0  0
   -3.3060   15.6330    0.3400 C   0  0  1  0  0  0  0  0  0  0  0  0
   -1.8590   15.1900    0.4870 C   0  0  2  0  0  0  0  0  0  0  0  0
   -3.5960   15.6340   -1.0650 N   0  0  0  0  0  0  0  0  0  0  0  0
   -2.3740   15.9660   -1.7770 C   0  0  0  0  0  0  0  0  0  0  0  0
   -1.4230   14.2070   -0.6180 C   0  0  1  0  0  0  0  0  0  0  0  0
   -1.5010   14.4470    1.6690 N   0  0  0  0  0  0  0  0  0  0  0  0
   -1.4650   14.8360   -1.9540 N   0  0  0  0  0  0  0  0  0  0  0  0
   -0.0660   13.9870   -0.1220 N   0  0  0  0  0  0  0  0  0  0  0  0
   -0.1340   14.1500    1.3370 C   0  0  0  0  0  0  0  0  0  0  0  0
   -2.0840   14.0120   -3.0290 C   0  0  2  0  0  0  0  0  0  0  0  0
   -3.2450   13.1580   -2.5310 C   0  0  0  0  0  0  0  0  0  0  0  0
   -1.2120   13.0230   -3.7210 C   0  0  0  0  0  0  0  0  0  0  0  0
   -3.1880   11.9330   -2.6290 O   0  0  0  0  0  0  0  0  0  0  0  0
   -1.4830   12.0280   -4.6240 C   0  0  0  0  0  0  0  0  0  0  0  0
    0.1260   13.0410   -3.4540 O   0  0  0  0  0  0  0  0  0  0  0  0
   -4.4590   13.7290   -1.9070 C   0  0  0  0  0  0  0  0  0  0  0  0
    0.7420   12.0400   -4.1930 N   0  0  0  0  0  0  0  0  0  0  0  0
   -0.2470   11.4550   -4.8760 C   0  0  0  0  0  0  0  0  0  0  0  0
   -4.8860   13.2850   -0.6550 C   0  0  0  0  0  0  0  0  0  0  0  0
   -5.1790   14.7220   -2.5890 C   0  0  0  0  0  0  0  0  0  0  0  0
   -0.0590   10.4170   -5.7160 O   0  0  0  0  0  0  0  0  0  0  0  0
   -6.0320   13.8250   -0.0760 C   0  0  0  0  0  0  0  0  0  0  0  0
   -6.3270   15.2610   -2.0050 C   0  0  0  0  0  0  0  0  0  0  0  0
   -0.9900    9.3540   -5.5400 C   0  0  0  0  0  0  0  0  0  0  0  0
   -6.7420   14.8070   -0.7560 C   0  0  0  0  0  0  0  0  0  0  0  0
   -7.8660   15.3470   -0.2130 O   0  0  0  0  0  0  0  0  0  0  0  0
  2  1  1  1
  2  3  1  0
  2  4  1  0
  4  5  1  0
  3  6  1  0
  3  7  1  1
  5  8  1  0
  6  8  1  0
  6  9  1  1
  7 10  1  0
  9 10  1  0
  8 11  1  0
 11 12  1  1
 11 13  1  0
 12 14  2  0
 13 15  2  0
 13 16  1  0
 12 17  1  0
 16 18  1  0
 15 19  1  0
 18 19  2  0
 17 20  2  0
 17 21  1  0
 19 22  1  0
 20 23  1  0
 21 24  2  0
 22 25  1  0
 23 26  2  0
 24 26  1  0
 26 27  1  0
M  END
