mac-x0283-mac-x0380
     RDKit          3D

 13 14  0  0  0  0  0  0  0  0999 V2000
   -6.8110   14.7210    2.4960 N   0  0  0  0  0  0  0  0  0  0  0  0
   -6.6920   14.7650    1.1580 C   0  0  0  0  0  0  0  0  0  0  0  0
   -7.7360   14.7380    0.3320 N   0  0  0  0  0  0  0  0  0  0  0  0
   -5.4570   14.8530    0.4500 C   0  0  0  0  0  0  0  0  0  0  0  0
   -7.2090   14.8110   -0.9420 O   0  0  0  0  0  0  0  0  0  0  0  0
   -5.8570   14.8760   -0.8720 C   0  0  0  0  0  0  0  0  0  0  0  0
   -4.0770   14.9160    0.7380 C   0  0  0  0  0  0  0  0  0  0  0  0
   -5.0030   14.9520   -1.9610 C   0  0  0  0  0  0  0  0  0  0  0  0
   -3.1760   14.9880   -0.3420 C   0  0  0  0  0  0  0  0  0  0  0  0
   -3.6360   15.0020   -1.6770 C   0  0  0  0  0  0  0  0  0  0  0  0
   -2.6640   15.0650   -2.7990 C   0  0  0  0  0  0  0  0  0  0  0  0
   -1.4070   14.7510   -2.4380 O   0  0  0  0  0  0  0  0  0  0  0  0
   -2.9350   15.3530   -3.9490 O   0  0  0  0  0  0  0  0  0  0  0  0
  1  2  1  0
  2  3  2  0
  2  4  1  0
  3  5  1  0
  4  6  2  0
  5  6  1  0
  4  7  1  0
  6  8  1  0
  7  9  2  0
  8 10  2  0
  9 10  1  0
 10 11  1  0
 11 12  1  0
 11 13  2  0
M  END
