mac-x0344-diamond-x0727_0_A
     RDKit          3D

 14 14  0  0  0  0  0  0  0  0999 V2000
    1.5660   13.6760   -4.6750 O   0  0  0  0  0  0  0  0  0  0  0  0
    1.1630   12.8500   -3.7070 C   0  0  0  0  0  0  0  0  0  0  0  0
    1.4430   13.0180   -2.5390 O   0  0  0  0  0  0  0  0  0  0  0  0
    0.3190   11.6690   -4.2200 C   0  0  0  0  0  0  0  0  0  0  0  0
   -0.0660   10.8790   -3.3610 O   0  0  0  0  0  0  0  0  0  0  0  0
    0.0700   11.6090   -5.6030 N   0  0  0  0  0  0  0  0  0  0  0  0
    1.1000   11.9330   -6.4710 C   0  0  0  0  0  0  0  0  0  0  0  0
   -0.8540   10.6190   -6.1010 C   0  0  0  0  0  0  0  0  0  0  0  0
    1.5930   11.2220   -7.3240 O   0  0  0  0  0  0  0  0  0  0  0  0
   -0.5840    9.9290   -7.3000 C   0  0  0  0  0  0  0  0  0  0  0  0
   -2.0450   10.2940   -5.4340 C   0  0  0  0  0  0  0  0  0  0  0  0
   -1.4600    8.9640   -7.8060 C   0  0  0  0  0  0  0  0  0  0  0  0
   -2.9250    9.3270   -5.9410 C   0  0  0  0  0  0  0  0  0  0  0  0
   -2.6300    8.6630   -7.1260 C   0  0  0  0  0  0  0  0  0  0  0  0
  1  2  1  0
  2  3  2  0
  2  4  1  0
  4  5  2  0
  4  6  1  0
  6  7  1  0
  6  8  1  0
  7  9  2  0
  8 10  2  0
  8 11  1  0
 10 12  1  0
 11 13  2  0
 12 14  2  0
 13 14  1  0
M  END
