mac-x0212-mac-x0379
     RDKit          3D

 14 14  0  0  0  0  0  0  0  0999 V2000
   -6.4730   12.7450    1.4160 C   0  0  0  0  0  0  0  0  0  0  0  0
   -6.9200   14.4290    1.0560 S   0  0  0  0  0  0  0  0  0  0  0  0
   -7.7670   14.9100    2.1280 O   0  0  0  0  0  0  0  0  0  0  0  0
   -7.3430   14.5300   -0.3250 O   0  0  0  0  0  0  0  0  0  0  0  0
   -5.4000   15.1580    1.2860 N   0  0  0  0  0  0  0  0  0  0  0  0
   -4.4970   15.0150    0.1850 C   0  0  0  0  0  0  0  0  0  0  0  0
   -3.2590   14.4190    0.4110 C   0  0  0  0  0  0  0  0  0  0  0  0
   -4.8510   15.4550   -1.0990 C   0  0  0  0  0  0  0  0  0  0  0  0
   -2.3650   14.2510   -0.6480 C   0  0  0  0  0  0  0  0  0  0  0  0
   -3.9550   15.2850   -2.1630 C   0  0  0  0  0  0  0  0  0  0  0  0
   -2.7140   14.6790   -1.9330 C   0  0  0  0  0  0  0  0  0  0  0  0
   -1.7330   14.4650   -3.0270 C   0  0  0  0  0  0  0  0  0  0  0  0
   -0.5860   14.1120   -2.8270 O   0  0  0  0  0  0  0  0  0  0  0  0
   -2.2490   14.6890   -4.2540 O   0  0  0  0  0  0  0  0  0  0  0  0
  1  2  1  0
  2  3  2  0
  2  4  2  0
  2  5  1  0
  5  6  1  0
  6  7  2  0
  6  8  1  0
  7  9  1  0
  8 10  2  0
  9 11  2  0
 10 11  1  0
 11 12  1  0
 12 13  2  0
 12 14  1  0
M  END
