mac-x0587-mac-x0455
     RDKit          3D

 22 23  0  0  0  0  0  0  0  0999 V2000
    0.0740   16.2480   -3.6970 C   0  0  0  0  0  0  0  0  0  0  0  0
   -0.9990   15.1780   -3.9590 C   0  0  2  0  0  0  0  0  0  0  0  0
   -2.3830   15.5000   -3.4080 C   0  0  0  0  0  0  0  0  0  0  0  0
   -0.6070   13.7470   -3.5850 C   0  0  0  0  0  0  0  0  0  0  0  0
   -3.2390   15.9330   -4.1710 O   0  0  0  0  0  0  0  0  0  0  0  0
   -2.6880   15.2730   -2.0730 N   0  0  0  0  0  0  0  0  0  0  0  0
   -0.9510   12.6510   -4.5660 C   0  0  0  0  0  0  0  0  0  0  0  0
   -4.0320   15.1340   -1.5470 C   0  0  0  0  0  0  0  0  0  0  0  0
   -1.7210   15.4320   -0.9960 C   0  0  2  0  0  0  0  0  0  0  0  0
   -1.5970   12.9430   -5.7660 C   0  0  0  0  0  0  0  0  0  0  0  0
   -0.6460   11.3170   -4.3250 C   0  0  0  0  0  0  0  0  0  0  0  0
   -0.4430   14.6570   -1.1910 N   0  0  0  0  0  0  0  0  0  0  0  0
   -3.8780   15.3030   -0.0480 C   0  0  0  0  0  0  0  0  0  0  0  0
   -2.4630   15.0560    0.2250 N   0  0  0  0  0  0  0  0  0  0  0  0
   -1.9070   11.9440   -6.6860 C   0  0  0  0  0  0  0  0  0  0  0  0
   -0.9480   10.3250   -5.2550 C   0  0  0  0  0  0  0  0  0  0  0  0
    0.0040   10.8410   -3.0770 C   0  0  0  0  0  0  0  0  0  0  0  0
    0.4920   15.3250   -1.6590 O   0  0  0  0  0  0  0  0  0  0  0  0
   -1.5780   10.6320   -6.4380 C   0  0  0  0  0  0  0  0  0  0  0  0
    1.0260   11.7860   -2.5920 C   0  0  0  0  0  0  0  0  0  0  0  0
    2.0740   12.0120   -3.1430 O   0  0  0  0  0  0  0  0  0  0  0  0
    0.7010   12.3960   -1.4360 O   0  0  0  0  0  0  0  0  0  0  0  0
  2  1  1  1
  2  3  1  0
  2  4  1  0
  3  5  2  0
  3  6  1  0
  4  7  1  0
  6  8  1  0
  6  9  1  0
  7 10  2  0
  7 11  1  0
  9 12  1  6
  8 13  1  0
  9 14  1  0
 13 14  1  0
 10 15  1  0
 11 16  2  0
 11 17  1  0
 12 18  2  0
 15 19  2  0
 16 19  1  0
 17 20  1  0
 20 21  2  0
 20 22  1  0
M  END
