mac-x0572-diamond-x0685_1_A
     RDKit          3D

 28 30  0  0  0  0  0  0  0  0999 V2000
   -7.9520   14.5290    3.1690 C   0  0  0  0  0  0  0  0  0  0  0  0
   -7.2010   14.6600    1.8610 C   0  0  0  0  0  0  0  0  0  0  0  0
   -5.8540   14.8000    2.0590 N   0  0  0  0  0  0  0  0  0  0  0  0
   -7.7890   14.6490    0.6500 C   0  0  0  0  0  0  0  0  0  0  0  0
   -9.1420   14.5140    0.4210 O   0  0  0  0  0  0  0  0  0  0  0  0
   -6.8990   14.8020   -0.5610 C   0  0  0  0  0  0  0  0  0  0  0  0
   -5.0620   15.1280    1.0880 C   0  0  0  0  0  0  0  0  0  0  0  0
   -7.3080   14.4550   -1.6650 O   0  0  0  0  0  0  0  0  0  0  0  0
   -5.5130   15.3980   -0.3330 C   0  0  1  0  0  0  0  0  0  0  0  0
   -3.6290   15.2410    1.4050 C   0  0  0  0  0  0  0  0  0  0  0  0
   -2.7520   15.1030    0.4190 C   0  0  0  0  0  0  0  0  0  0  0  0
   -4.4480   14.9810   -1.3120 C   0  0  0  0  0  0  0  0  0  0  0  0
   -3.1520   14.8420   -0.9540 C   0  0  0  0  0  0  0  0  0  0  0  0
   -2.0630   14.4000   -1.9130 C   0  0  0  0  0  0  0  0  0  0  0  0
   -1.3260   13.1520   -1.4190 C   0  0  0  0  0  0  0  0  0  0  0  0
    0.0590   13.2060   -1.7620 O   0  0  0  0  0  0  0  0  0  0  0  0
    0.6430   12.1340   -2.8110 S   0  0  0  0  0  0  0  0  0  0  0  0
    0.0020   12.5390   -4.4350 C   0  0  0  0  0  0  0  0  0  0  0  0
    2.2270   12.3110   -2.9630 O   0  0  0  0  0  0  0  0  0  0  0  0
    0.2670   10.5950   -2.4770 O   0  0  0  0  0  0  0  0  0  0  0  0
   -1.3990   12.0010   -4.7120 C   0  0  0  0  0  0  0  0  0  0  0  0
   -1.3690   10.5440   -4.9110 N   0  0  0  0  0  0  0  0  0  0  0  0
   -1.4690   10.0610   -6.3030 C   0  0  0  0  0  0  0  0  0  0  0  0
   -0.2490    9.2480   -6.7100 C   0  0  0  0  0  0  0  0  0  0  0  0
   -1.5970   11.1970   -7.3380 C   0  0  0  0  0  0  0  0  0  0  0  0
   -0.4280    8.4910   -8.0110 C   0  0  0  0  0  0  0  0  0  0  0  0
   -1.1570   10.8130   -8.7600 C   0  0  0  0  0  0  0  0  0  0  0  0
   -1.1830    9.3110   -9.0560 C   0  0  0  0  0  0  0  0  0  0  0  0
  1  2  1  0
  2  3  1  0
  2  4  2  0
  4  5  1  0
  4  6  1  0
  3  7  2  0
  6  8  2  0
  6  9  1  0
  7  9  1  0
  7 10  1  0
 10 11  2  0
  9 12  1  6
 11 13  1  0
 12 13  2  0
 13 14  1  0
 14 15  1  0
 15 16  1  0
 17 16  1  0
 17 18  1  0
 17 19  1  0
 17 20  1  0
 18 21  1  0
 21 22  1  0
 22 23  1  0
 23 24  1  0
 23 25  1  0
 24 26  1  0
 25 27  1  0
 26 28  1  0
 27 28  1  0
M  END
