mac-x0302-mac-x0436
     RDKit          3D

 28 30  0  0  0  0  0  0  0  0999 V2000
    1.1840   13.5240   -4.1950 O   0  0  0  0  0  0  0  0  0  0  0  0
    0.5900   14.0020   -2.9670 C   0  0  2  0  0  0  0  0  0  0  0  0
    0.4420   12.9150   -1.9900 N   0  0  0  0  0  0  0  0  0  0  0  0
    0.3110   13.4410   -5.3350 C   0  0  0  0  0  0  0  0  0  0  0  0
   -0.7760   14.6540   -3.3320 C   0  0  0  0  0  0  0  0  0  0  0  0
   -0.3630   12.0840   -5.6390 C   0  0  0  0  0  0  0  0  0  0  0  0
   -1.7100   14.7110   -2.2130 N   0  0  0  0  0  0  0  0  0  0  0  0
    0.6110   11.8020   -2.6060 C   0  0  0  0  0  0  0  0  0  0  0  0
   -1.5940   11.6770   -4.8160 C   0  0  0  0  0  0  0  0  0  0  0  0
    0.0930   11.3180   -6.5960 N   0  0  0  0  0  0  0  0  0  0  0  0
   -3.0070   15.1530   -2.3900 C   0  0  0  0  0  0  0  0  0  0  0  0
    0.5160   10.6410   -1.9470 O   0  0  0  0  0  0  0  0  0  0  0  0
   -1.9450   12.2960   -3.8280 O   0  0  0  0  0  0  0  0  0  0  0  0
   -2.2810   10.5680   -5.2560 N   0  0  0  0  0  0  0  0  0  0  0  0
   -0.5730   10.1120   -6.8820 C   0  0  0  0  0  0  0  0  0  0  0  0
   -3.4160   15.5900   -3.4630 O   0  0  0  0  0  0  0  0  0  0  0  0
   -3.9120   15.0880   -1.2070 C   0  0  0  0  0  0  0  0  0  0  0  0
   -1.7530    9.7250   -6.2290 C   0  0  0  0  0  0  0  0  0  0  0  0
   -0.0480    9.2670   -7.8590 C   0  0  0  0  0  0  0  0  0  0  0  0
   -5.3100   15.0050   -1.2940 C   0  0  0  0  0  0  0  0  0  0  0  0
   -3.3030   15.1100    0.0570 C   0  0  0  0  0  0  0  0  0  0  0  0
   -0.6870    8.0660   -8.1780 C   0  0  0  0  0  0  0  0  0  0  0  0
   -2.4000    8.5270   -6.5380 C   0  0  0  0  0  0  0  0  0  0  0  0
   -6.0610   14.9380   -0.1210 C   0  0  0  0  0  0  0  0  0  0  0  0
   -4.0620   15.0480    1.2150 C   0  0  0  0  0  0  0  0  0  0  0  0
   -1.8620    7.6970   -7.5180 C   0  0  0  0  0  0  0  0  0  0  0  0
   -7.4180   14.8500   -0.2300 O   0  0  0  0  0  0  0  0  0  0  0  0
   -5.4450   14.9580    1.1300 C   0  0  0  0  0  0  0  0  0  0  0  0
  1  2  1  0
  2  3  1  0
  1  4  1  0
  2  5  1  6
  4  6  1  0
  5  7  1  0
  3  8  2  3
  6  9  1  0
  6 10  2  0
  7 11  1  0
  8 12  1  0
  9 13  2  0
  9 14  1  0
 10 15  1  0
 11 16  2  0
 11 17  1  0
 14 18  1  0
 15 18  2  0
 15 19  1  0
 17 20  2  0
 17 21  1  0
 19 22  2  0
 18 23  1  0
 20 24  1  0
 21 25  2  0
 22 26  1  0
 23 26  2  0
 24 27  1  0
 24 28  2  0
 25 28  1  0
M  END
