mac-x0381-mac-x0321
     RDKit          3D

 25 27  0  0  0  0  0  0  0  0999 V2000
   -8.4370   14.0550    5.5610 N   0  0  0  0  0  0  0  0  0  0  0  0
   -8.1800   14.4490    4.2880 C   0  0  0  0  0  0  0  0  0  0  0  0
   -6.9700   14.3700    3.8410 N   0  0  0  0  0  0  0  0  0  0  0  0
   -9.4040   14.9270    3.5150 C   0  0  0  0  0  0  0  0  0  0  0  0
   -6.4680   14.6770    2.5200 C   0  0  0  0  0  0  0  0  0  0  0  0
   -9.3700   15.7780    2.4010 C   0  0  0  0  0  0  0  0  0  0  0  0
  -10.6480   14.4750    3.9670 C   0  0  0  0  0  0  0  0  0  0  0  0
   -5.0200   15.1790    2.6830 C   0  0  0  0  0  0  0  0  0  0  0  0
  -10.5570   16.1740    1.7370 C   0  0  0  0  0  0  0  0  0  0  0  0
  -11.8270   14.8500    3.3230 C   0  0  0  0  0  0  0  0  0  0  0  0
   -4.0060   14.5730    1.7240 C   0  0  0  0  0  0  0  0  0  0  0  0
  -11.7970   15.6920    2.2060 C   0  0  0  0  0  0  0  0  0  0  0  0
  -10.5450   17.0320    0.6200 C   0  0  0  0  0  0  0  0  0  0  0  0
  -12.9810   16.0660    1.5430 C   0  0  0  0  0  0  0  0  0  0  0  0
  -11.7330   17.4000   -0.0190 C   0  0  0  0  0  0  0  0  0  0  0  0
   -4.1780   14.8560    0.2410 C   0  0  0  0  0  0  0  0  0  0  0  0
  -12.9490   16.9140    0.4400 C   0  0  0  0  0  0  0  0  0  0  0  0
   -3.0480   14.7480   -0.5670 C   0  0  0  0  0  0  0  0  0  0  0  0
   -5.4020   15.2060   -0.3540 C   0  0  0  0  0  0  0  0  0  0  0  0
   -3.1150   14.9700   -1.9410 C   0  0  0  0  0  0  0  0  0  0  0  0
   -5.4760   15.4360   -1.7330 C   0  0  0  0  0  0  0  0  0  0  0  0
   -1.9130   14.8430   -2.8040 C   0  0  0  0  0  0  0  0  0  0  0  0
   -4.3320   15.3140   -2.5240 C   0  0  0  0  0  0  0  0  0  0  0  0
   -0.7660   14.7690   -2.1020 O   0  0  0  0  0  0  0  0  0  0  0  0
   -1.9070   14.7930   -4.0210 O   0  0  0  0  0  0  0  0  0  0  0  0
  1  2  1  0
  2  3  2  3
  2  4  1  0
  3  5  1  0
  4  6  2  0
  4  7  1  0
  5  8  1  0
  6  9  1  0
  7 10  2  0
  8 11  1  0
  9 12  2  0
 10 12  1  0
  9 13  1  0
 12 14  1  0
 13 15  2  0
 11 16  1  0
 14 17  2  0
 15 17  1  0
 16 18  2  0
 16 19  1  0
 18 20  1  0
 19 21  2  0
 20 22  1  0
 20 23  2  0
 21 23  1  0
 22 24  1  0
 22 25  2  0
M  END
