mac-x0397-mac-x0223
     RDKit          3D

 26 28  0  0  0  0  0  0  0  0999 V2000
   -6.7360   15.1150   -2.4610 Cl  0  0  0  0  0  0  0  0  0  0  0  0
   -5.0990   15.0170   -1.9760 C   0  0  0  0  0  0  0  0  0  0  0  0
   -4.9590   14.9660   -0.5750 C   0  0  0  0  0  0  0  0  0  0  0  0
   -4.0020   14.9780   -2.8670 C   0  0  0  0  0  0  0  0  0  0  0  0
   -4.2150   14.9970   -4.4060 C   0  0  0  0  0  0  0  0  0  0  0  0
   -5.9800   14.9890    0.3610 N   0  0  0  0  0  0  0  0  0  0  0  0
   -3.6830   14.8790   -0.0470 C   0  0  0  0  0  0  0  0  0  0  0  0
   -2.7290   14.8930   -2.2710 C   0  0  0  0  0  0  0  0  0  0  0  0
   -3.5780   16.0640   -5.3750 C   0  0  0  0  0  0  0  0  0  0  0  0
   -5.5030   14.9230    1.5630 C   0  0  0  0  0  0  0  0  0  0  0  0
   -3.7910   14.8280    1.6660 S   0  0  0  0  0  0  0  0  0  0  0  0
   -2.5500   14.8420   -0.8730 C   0  0  0  0  0  0  0  0  0  0  0  0
   -6.3130   14.9320    2.6350 N   0  0  0  0  0  0  0  0  0  0  0  0
   -2.6620   17.0030   -4.7820 O   0  0  0  0  0  0  0  0  0  0  0  0
   -1.5820   16.2400   -4.6730 C   0  0  0  0  0  0  0  0  0  0  0  0
   -0.2670   16.7230   -4.6950 C   0  0  0  0  0  0  0  0  0  0  0  0
   -1.8390   14.8960   -4.5410 C   0  0  0  0  0  0  0  0  0  0  0  0
   -0.0700   18.0670   -4.8420 O   0  0  0  0  0  0  0  0  0  0  0  0
   -0.8380   13.9960   -4.4190 C   0  0  0  0  0  0  0  0  0  0  0  0
    0.7690   15.7830   -4.5680 C   0  0  0  0  0  0  0  0  0  0  0  0
    1.1250   18.4070   -5.5180 C   0  0  0  0  0  0  0  0  0  0  0  0
    0.4660   14.4140   -4.4260 C   0  0  0  0  0  0  0  0  0  0  0  0
    1.4830   13.3360   -4.2670 C   0  0  0  0  0  0  0  0  0  0  0  0
    1.0330   12.4320   -3.1420 C   0  0  0  0  0  0  0  0  0  0  0  0
    0.4330   11.3730   -3.1940 O   0  0  0  0  0  0  0  0  0  0  0  0
    1.3570   12.9580   -1.9450 O   0  0  0  0  0  0  0  0  0  0  0  0
  1  2  1  0
  2  3  2  0
  2  4  1  0
  4  5  1  0
  3  6  1  0
  3  7  1  0
  4  8  2  0
  5  9  1  0
  6 10  2  0
  7 11  1  0
 10 11  1  0
  7 12  2  0
  8 12  1  0
 10 13  1  0
  9 14  1  0
 14 15  1  0
 15 16  2  0
 15 17  1  0
 16 18  1  0
 17 19  2  0
 16 20  1  0
 18 21  1  0
 19 22  1  0
 20 22  2  0
 22 23  1  0
 23 24  1  0
 24 25  2  0
 24 26  1  0
M  END
