mac-x0588-mac-x0283
     RDKit          3D

 21 24  0  0  0  0  0  0  0  0999 V2000
   -4.0900   15.8360    1.7270 N   0  0  0  0  0  0  0  0  0  0  0  0
   -3.5250   15.5930    0.3700 C   0  0  1  0  0  0  0  0  0  0  0  0
   -2.2200   14.7690    0.3690 C   0  0  1  0  0  0  0  0  0  0  0  0
   -4.4830   15.0150   -0.6930 C   0  0  2  0  0  0  0  0  0  0  0  0
   -3.6870   14.9490   -2.0630 C   0  0  0  0  0  0  0  0  0  0  0  0
   -1.4940   14.8820   -0.9690 C   0  0  1  0  0  0  0  0  0  0  0  0
   -1.2300   15.1760    1.3780 N   0  0  0  0  0  0  0  0  0  0  0  0
   -5.7260   15.8050   -0.8890 O   0  0  0  0  0  0  0  0  0  0  0  0
   -5.1150   13.7500   -0.1230 C   0  0  0  0  0  0  0  0  0  0  0  0
   -2.2570   15.4140   -2.0790 N   0  0  0  0  0  0  0  0  0  0  0  0
   -0.3560   15.6950   -0.6310 N   0  0  0  0  0  0  0  0  0  0  0  0
    0.0080   15.1320    0.6430 C   0  0  0  0  0  0  0  0  0  0  0  0
   -6.0630   14.4710    0.8110 C   0  0  1  0  0  0  0  0  0  0  0  0
   -6.8420   15.1160   -0.1950 N   0  0  0  0  0  0  0  0  0  0  0  0
   -1.5180   15.0720   -3.3120 C   0  0  0  0  0  0  0  0  0  0  0  0
   -6.8650   13.7000    1.7080 N   0  0  0  0  0  0  0  0  0  0  0  0
   -1.0390   16.1340   -4.3500 C   0  0  1  0  0  0  0  0  0  0  0  0
   -1.5910   17.4630   -4.2510 O   0  0  0  0  0  0  0  0  0  0  0  0
    0.4620   16.3330   -4.5590 C   0  0  0  0  0  0  0  0  0  0  0  0
    0.5500   17.7130   -5.1830 C   0  0  0  0  0  0  0  0  0  0  0  0
   -0.8960   18.1670   -5.2830 C   0  0  0  0  0  0  0  0  0  0  0  0
  2  1  1  1
  2  3  1  0
  2  4  1  0
  4  5  1  6
  3  6  1  0
  3  7  1  1
  4  8  1  0
  4  9  1  0
  5 10  1  0
  6 10  1  0
  6 11  1  1
  7 12  1  0
 11 12  1  0
  9 13  1  0
  8 14  1  0
 13 14  1  0
 10 15  1  0
 13 16  1  6
 17 15  1  1
 17 18  1  0
 17 19  1  0
 19 20  1  0
 18 21  1  0
 20 21  1  0
M  END
