mac-x0137-diamond-x0962_3_A
     RDKit          3D

 25 28  0  0  0  0  0  0  0  0999 V2000
   -2.5980   12.5970   -3.9300 F   0  0  0  0  0  0  0  0  0  0  0  0
   -1.6590   13.4160   -4.4740 C   0  0  2  0  0  0  0  0  0  0  0  0
   -0.3270   12.6800   -4.6810 C   0  0  2  0  0  0  0  0  0  0  0  0
   -1.4390   14.6320   -3.5570 C   0  0  0  0  0  0  0  0  0  0  0  0
   -0.3510   11.5310   -5.6860 C   0  0  0  0  0  0  0  0  0  0  0  0
   -0.6320   14.2980   -2.3490 N   0  0  0  0  0  0  0  0  0  0  0  0
    0.2730   12.2830   -3.3330 C   0  0  0  0  0  0  0  0  0  0  0  0
    0.6910   11.8330   -6.7630 C   0  0  0  0  0  0  0  0  0  0  0  0
    0.6160   13.5600   -2.5930 C   0  0  0  0  0  0  0  0  0  0  0  0
   -1.0730   14.4760   -1.0420 C   0  0  0  0  0  0  0  0  0  0  0  0
    0.9820   10.6800   -7.7220 C   0  0  2  0  0  0  0  0  0  0  0  0
   -0.1540   14.2720   -0.0330 N   0  0  0  0  0  0  0  0  0  0  0  0
   -2.3050   14.8430   -0.6290 C   0  0  0  0  0  0  0  0  0  0  0  0
    1.0640   11.1740   -9.0950 N   0  0  0  0  0  0  0  0  0  0  0  0
   -0.4900   14.3250    1.2850 C   0  0  0  0  0  0  0  0  0  0  0  0
   -2.5680   14.9710    0.8260 C   0  0  0  0  0  0  0  0  0  0  0  0
   -3.5720   15.2010   -1.1990 C   0  0  0  0  0  0  0  0  0  0  0  0
   -0.0560    9.6500   -7.6990 C   0  0  0  0  0  0  0  0  0  0  0  0
   -1.6350   14.6470    1.7610 N   0  0  0  0  0  0  0  0  0  0  0  0
   -3.7630   15.4090    1.0880 N   0  0  0  0  0  0  0  0  0  0  0  0
   -4.3530   15.5340   -0.1570 C   0  0  0  0  0  0  0  0  0  0  0  0
    0.1140    8.4360   -8.3100 N   0  0  0  0  0  0  0  0  0  0  0  0
   -1.3150    9.5870   -7.1480 C   0  0  0  0  0  0  0  0  0  0  0  0
   -1.0140    7.7090   -8.1100 C   0  0  0  0  0  0  0  0  0  0  0  0
   -1.9000    8.3820   -7.4060 N   0  0  0  0  0  0  0  0  0  0  0  0
  2  1  1  1
  2  3  1  0
  2  4  1  0
  3  5  1  6
  4  6  1  0
  3  7  1  0
  5  8  1  0
  6  9  1  0
  7  9  1  0
  6 10  1  0
  8 11  1  0
 10 12  1  0
 10 13  2  0
 11 14  1  6
 12 15  1  0
 13 16  1  0
 13 17  1  0
 11 18  1  0
 15 19  2  0
 16 19  1  0
 16 20  2  0
 17 21  2  0
 20 21  1  0
 18 22  1  0
 18 23  2  0
 22 24  1  0
 23 25  1  0
 24 25  2  0
M  END
