mac-x0402-mac-x0453
     RDKit          3D

 14 16  0  0  0  0  0  0  0  0999 V2000
   -2.6990   16.6130   -4.4690 Cl  0  0  0  0  0  0  0  0  0  0  0  0
   -3.2950   15.3020   -3.4310 C   0  0  2  0  0  0  0  0  0  0  0  0
   -4.8540   15.3450   -3.2040 C   0  0  0  0  0  0  0  0  0  0  0  0
   -2.5530   15.3070   -2.1260 C   0  0  0  0  0  0  0  0  0  0  0  0
   -3.0340   14.2090   -1.2040 C   0  0  2  0  0  0  0  0  0  0  0  0
   -5.2470   14.0390   -2.4160 C   0  0  2  0  0  0  0  0  0  0  0  0
   -6.0540   13.9210   -1.2710 C   0  0  0  0  0  0  0  0  0  0  0  0
   -4.5110   14.3110   -1.0620 C   0  0  1  0  0  0  0  0  0  0  0  0
   -2.9320   14.1040    0.3840 C   0  0  0  0  0  0  0  0  0  0  0  0
   -7.1640   13.8850   -0.8360 C   0  0  0  0  0  0  0  0  0  0  0  0
   -5.2050   13.6270    0.3150 C   0  0  2  0  0  0  0  0  0  0  0  0
   -2.8340   14.0040    1.9080 S   0  0  0  0  0  0  0  0  0  0  0  0
   -6.6250   13.8250    0.3470 N   0  0  0  0  0  0  0  0  0  0  0  0
   -4.5900   13.8970    1.7560 C   0  0  0  0  0  0  0  0  0  0  0  0
  2  1  1  6
  2  3  1  0
  2  4  1  0
  5  4  1  1
  6  3  1  6
  6  7  1  0
  8  5  1  6
  6  8  1  0
  5  9  1  0
  7 10  2  0
  8 11  1  0
  9 12  2  0
 10 13  1  0
 11 13  1  0
 11 14  1  1
 12 14  2  0
M  END
