mac-x0584-mac-x0451
     RDKit          3D

 23 27  0  0  0  0  0  0  0  0999 V2000
   -4.0890   14.2440   -2.0800 F   0  0  0  0  0  0  0  0  0  0  0  0
   -3.8260   15.0850   -1.0540 C   0  0  2  0  0  0  0  0  0  0  0  0
   -2.4690   14.9490   -0.5400 C   0  0  0  0  0  0  0  0  0  0  0  0
   -4.6140   14.7920    0.2560 C   0  0  1  0  0  0  0  0  0  0  0  0
   -2.4900   15.0750    0.8450 C   0  0  0  0  0  0  0  0  0  0  0  0
   -1.3000   14.7370   -1.2000 C   0  0  0  0  0  0  0  0  0  0  0  0
   -3.8200   15.3060    1.2970 N   0  0  0  0  0  0  0  0  0  0  0  0
   -6.0430   15.0200    0.2200 N   0  0  0  0  0  0  0  0  0  0  0  0
   -4.9540   13.1450    0.8530 S   0  0  0  0  0  0  0  0  0  0  0  0
   -1.2600   14.6160   -2.5940 N   0  0  0  0  0  0  0  0  0  0  0  0
   -0.1770   14.6510   -0.4620 N   0  0  0  0  0  0  0  0  0  0  0  0
   -1.4170   14.9890    1.5990 N   0  0  0  0  0  0  0  0  0  0  0  0
   -6.4670   14.0770    1.2190 C   0  0  1  0  0  0  0  0  0  0  0  0
   -6.5180   14.7670    2.4690 N   0  0  0  0  0  0  0  0  0  0  0  0
   -0.0360   14.7840   -3.3930 C   0  0  1  0  0  0  0  0  0  0  0  0
   -2.4470   14.9740   -3.4000 C   0  0  0  0  0  0  0  0  0  0  0  0
   -0.3010   14.7820    0.8890 C   0  0  0  0  0  0  0  0  0  0  0  0
    0.4890   13.4900   -3.9900 C   0  0  0  0  0  0  0  0  0  0  0  0
   -0.4690   15.7490   -4.5130 C   0  0  0  0  0  0  0  0  0  0  0  0
   -1.9160   15.3770   -4.7770 C   0  0  0  0  0  0  0  0  0  0  0  0
    1.8370   12.9100   -3.5200 C   0  0  0  0  0  0  0  0  0  0  0  0
   -0.1250   12.1200   -3.6320 C   0  0  0  0  0  0  0  0  0  0  0  0
    1.2570   11.5740   -3.9760 C   0  0  0  0  0  0  0  0  0  0  0  0
  2  1  1  6
  2  3  1  0
  2  4  1  0
  3  5  2  0
  3  6  1  0
  4  7  1  1
  5  7  1  0
  4  8  1  0
  4  9  1  0
  6 10  1  0
  6 11  2  0
  5 12  1  0
  8 13  1  0
  9 13  1  0
 13 14  1  1
 10 15  1  0
 10 16  1  0
 11 17  1  0
 12 17  2  0
 15 18  1  6
 15 19  1  0
 16 20  1  0
 19 20  1  0
 18 21  1  0
 18 22  1  0
 21 23  1  0
 22 23  1  0
M  END
