mac-x0451-mac-x0357
     RDKit          3D

 21 23  0  0  0  0  0  0  0  0999 V2000
   -6.2490   15.0970    2.7570 N   0  0  0  0  0  0  0  0  0  0  0  0
   -5.4810   14.9540    1.6680 C   0  0  0  0  0  0  0  0  0  0  0  0
   -5.9190   15.1840    0.4660 N   0  0  0  0  0  0  0  0  0  0  0  0
   -3.8460   14.4440    1.7670 S   0  0  0  0  0  0  0  0  0  0  0  0
   -4.9360   14.9410   -0.4470 C   0  0  0  0  0  0  0  0  0  0  0  0
   -3.7220   14.4980    0.0770 C   0  0  0  0  0  0  0  0  0  0  0  0
   -5.0720   15.0890   -1.8270 C   0  0  0  0  0  0  0  0  0  0  0  0
   -2.6330   14.1560   -0.7210 C   0  0  0  0  0  0  0  0  0  0  0  0
   -3.9990   14.7400   -2.6360 C   0  0  0  0  0  0  0  0  0  0  0  0
   -2.8040   14.2580   -2.0920 C   0  0  0  0  0  0  0  0  0  0  0  0
   -1.8400   13.8280   -3.0020 N   0  0  0  0  0  0  0  0  0  0  0  0
   -0.6230   13.3700   -2.8660 C   0  0  0  0  0  0  0  0  0  0  0  0
    0.1920   13.2540   -1.7830 O   0  0  0  0  0  0  0  0  0  0  0  0
   -0.1720   12.7630   -4.1220 C   0  0  0  0  0  0  0  0  0  0  0  0
    1.0590   12.8240   -4.7880 C   0  0  0  0  0  0  0  0  0  0  0  0
   -1.2430   12.0170   -4.6480 C   0  0  0  0  0  0  0  0  0  0  0  0
    2.2470   13.5880   -4.2800 C   0  0  0  0  0  0  0  0  0  0  0  0
   -1.1300   11.3240   -5.8370 C   0  0  0  0  0  0  0  0  0  0  0  0
    1.1250   12.1090   -5.9930 C   0  0  0  0  0  0  0  0  0  0  0  0
    2.2750   12.1360   -6.6770 O   0  0  0  0  0  0  0  0  0  0  0  0
    0.0650   11.3730   -6.5160 C   0  0  0  0  0  0  0  0  0  0  0  0
  1  2  1  0
  2  3  2  0
  2  4  1  0
  3  5  1  0
  4  6  1  0
  5  6  2  0
  5  7  1  0
  6  8  1  0
  7  9  2  0
  8 10  2  0
  9 10  1  0
 10 11  1  0
 11 12  2  3
 12 13  1  0
 12 14  1  0
 14 15  2  0
 14 16  1  0
 15 17  1  0
 16 18  2  0
 15 19  1  0
 19 20  1  0
 18 21  1  0
 19 21  2  0
M  END
