mac-x0584-mac-x0159
     RDKit          3D

 25 29  0  0  0  0  0  0  0  0999 V2000
   -2.9000   15.8020   -3.0060 C   0  0  0  0  0  0  0  0  0  0  0  0
   -1.6870   16.5840   -3.6280 C   0  0  0  0  0  0  0  0  0  0  0  0
   -0.3460   16.7610   -3.2120 C   0  0  0  0  0  0  0  0  0  0  0  0
   -3.0990   15.6560   -1.4950 C   0  0  0  0  0  0  0  0  0  0  0  0
   -2.0240   15.2090   -0.7790 C   0  0  0  0  0  0  0  0  0  0  0  0
   -4.0710   15.8260   -0.5420 C   0  0  0  0  0  0  0  0  0  0  0  0
   -1.9430   17.2430   -4.8220 N   0  0  0  0  0  0  0  0  0  0  0  0
   -2.4250   15.1670    0.6260 C   0  0  0  0  0  0  0  0  0  0  0  0
   -0.8670   14.8650   -1.2040 C   0  0  0  0  0  0  0  0  0  0  0  0
   -3.6710   15.5290    0.7790 N   0  0  0  0  0  0  0  0  0  0  0  0
   -0.8860   17.8730   -5.2790 C   0  0  0  0  0  0  0  0  0  0  0  0
    0.5290   17.7420   -4.3250 S   0  0  0  0  0  0  0  0  0  0  0  0
   -0.8760   18.6630   -6.5380 C   0  0  0  0  0  0  0  0  0  0  0  0
   -0.7020   14.9470   -2.5990 N   0  0  0  0  0  0  0  0  0  0  0  0
    0.0180   14.4660   -0.2350 N   0  0  0  0  0  0  0  0  0  0  0  0
   -1.5410   14.7610    1.5800 N   0  0  0  0  0  0  0  0  0  0  0  0
    0.4590   14.5130   -3.3450 C   0  0  1  0  0  0  0  0  0  0  0  0
   -1.8710   14.5520   -3.4350 C   0  0  0  0  0  0  0  0  0  0  0  0
   -0.3760   14.4380    1.0950 C   0  0  0  0  0  0  0  0  0  0  0  0
    0.6370   13.0520   -3.1030 C   0  0  0  0  0  0  0  0  0  0  0  0
    0.0880   14.7650   -4.8270 C   0  0  0  0  0  0  0  0  0  0  0  0
   -1.4210   14.5840   -4.8980 C   0  0  0  0  0  0  0  0  0  0  0  0
    1.3530   12.1910   -4.1340 C   0  0  0  0  0  0  0  0  0  0  0  0
   -0.6060   12.1460   -3.3100 C   0  0  0  0  0  0  0  0  0  0  0  0
    0.3790   11.0590   -3.6970 C   0  0  0  0  0  0  0  0  0  0  0  0
  1  2  1  0
  2  3  2  0
  1  4  1  0
  4  5  1  0
  4  6  2  0
  2  7  1  0
  5  8  1  0
  5  9  2  0
  6 10  1  0
  8 10  2  0
  7 11  2  0
  3 12  1  0
 11 12  1  0
 11 13  1  0
  9 14  1  0
  9 15  1  0
  8 16  1  0
 14 17  1  0
 14 18  1  0
 15 19  1  0
 16 19  2  0
 17 20  1  6
 17 21  1  0
 18 22  1  0
 21 22  1  0
 20 23  1  0
 20 24  1  0
 23 25  1  0
 24 25  1  0
M  END
