mac-x0411-mac-x0380
     RDKit          3D

 28 30  0  0  0  0  0  0  0  0999 V2000
    0.6260    8.8750   -7.6740 Cl  0  0  0  0  0  0  0  0  0  0  0  0
   -0.6480    9.5820   -6.7510 C   0  0  0  0  0  0  0  0  0  0  0  0
   -0.5160   10.8430   -6.1240 C   0  0  0  0  0  0  0  0  0  0  0  0
   -1.8250    8.8500   -6.6550 C   0  0  0  0  0  0  0  0  0  0  0  0
    0.6860   11.5030   -6.2600 O   0  0  0  0  0  0  0  0  0  0  0  0
   -1.6070   11.3850   -5.3900 C   0  0  0  0  0  0  0  0  0  0  0  0
   -2.8950    9.3600   -5.9360 C   0  0  0  0  0  0  0  0  0  0  0  0
   -1.6440   12.7430   -4.6730 C   0  0  0  0  0  0  0  0  0  0  0  0
    1.0260   12.4740   -5.2580 C   0  0  0  0  0  0  0  0  0  0  0  0
   -2.7860   10.6110   -5.3170 C   0  0  0  0  0  0  0  0  0  0  0  0
    0.9360   11.9180   -3.8380 C   0  0  0  0  0  0  0  0  0  0  0  0
   -1.7910   12.8190   -3.1400 C   0  0  0  0  0  0  0  0  0  0  0  0
    1.4670   12.7070   -2.8790 O   0  0  0  0  0  0  0  0  0  0  0  0
    0.4380   10.8360   -3.5600 O   0  0  0  0  0  0  0  0  0  0  0  0
   -1.6580   14.1890   -2.6830 O   0  0  0  0  0  0  0  0  0  0  0  0
   -2.7440   14.9890   -2.8350 C   0  0  0  0  0  0  0  0  0  0  0  0
   -3.0290   15.6290   -3.8380 O   0  0  0  0  0  0  0  0  0  0  0  0
   -3.5830   14.9950   -1.6020 C   0  0  0  0  0  0  0  0  0  0  0  0
   -4.9750   15.0490   -1.6810 C   0  0  0  0  0  0  0  0  0  0  0  0
   -2.9660   14.9380   -0.3420 C   0  0  0  0  0  0  0  0  0  0  0  0
   -5.7500   15.0370   -0.5210 C   0  0  0  0  0  0  0  0  0  0  0  0
   -3.7400   14.9290    0.8250 C   0  0  0  0  0  0  0  0  0  0  0  0
   -5.1360   14.9750    0.7360 C   0  0  0  0  0  0  0  0  0  0  0  0
   -7.5180   15.0920   -0.6880 S   0  0  0  0  0  0  0  0  0  0  0  0
   -5.8850   14.9500    1.9290 N   0  0  0  0  0  0  0  0  0  0  0  0
   -7.8960   14.1030    0.7660 C   0  0  0  0  0  0  0  0  0  0  0  0
   -7.2180   14.6280    2.0050 C   0  0  0  0  0  0  0  0  0  0  0  0
   -7.8440   14.7790    3.0620 O   0  0  0  0  0  0  0  0  0  0  0  0
  1  2  1  0
  2  3  2  0
  2  4  1  0
  3  5  1  0
  3  6  1  0
  4  7  2  0
  6  8  1  0
  5  9  1  0
  6 10  2  0
  7 10  1  0
  9 11  1  0
  8 12  1  0
 11 13  1  0
 11 14  2  0
 12 15  1  0
 15 16  1  0
 16 17  2  0
 16 18  1  0
 18 19  2  0
 18 20  1  0
 19 21  1  0
 20 22  2  0
 21 23  2  0
 22 23  1  0
 21 24  1  0
 23 25  1  0
 24 26  1  0
 25 27  1  0
 26 27  1  0
 27 28  2  0
M  END
