mac-x0333-mac-x0441
     RDKit          3D

 30 33  0  0  0  0  0  0  0  0999 V2000
   -2.3460   15.1200   -2.6550 O   0  0  0  0  0  0  0  0  0  0  0  0
   -3.2660   15.0480   -1.6450 C   0  0  0  0  0  0  0  0  0  0  0  0
   -2.8290   14.8510   -0.3020 C   0  0  0  0  0  0  0  0  0  0  0  0
   -4.6230   15.1690   -1.9710 C   0  0  0  0  0  0  0  0  0  0  0  0
   -1.3620   14.6990    0.1080 C   0  0  0  0  0  0  0  0  0  0  0  0
   -5.5300   15.0890   -0.9400 C   0  0  0  0  0  0  0  0  0  0  0  0
   -3.8030   14.7870    0.7120 C   0  0  0  0  0  0  0  0  0  0  0  0
   -0.6860   13.5090   -0.5590 C   0  0  0  0  0  0  0  0  0  0  0  0
   -5.1350   14.9080    0.3560 C   0  0  0  0  0  0  0  0  0  0  0  0
   -6.8870   15.1700   -1.0490 O   0  0  0  0  0  0  0  0  0  0  0  0
    0.0800   13.8280   -1.8440 C   0  0  0  0  0  0  0  0  0  0  0  0
   -6.2000   14.8640    1.2020 O   0  0  0  0  0  0  0  0  0  0  0  0
   -7.2510   14.6570    0.2450 C   0  0  0  0  0  0  0  0  0  0  0  0
    0.7330   12.6120   -2.3130 N   0  0  0  0  0  0  0  0  0  0  0  0
    0.8600   12.2350   -3.5350 C   0  0  0  0  0  0  0  0  0  0  0  0
    1.4890   11.0660   -3.6610 O   0  0  0  0  0  0  0  0  0  0  0  0
    0.4170   12.8890   -4.8350 C   0  0  0  0  0  0  0  0  0  0  0  0
    0.1160   11.9610   -5.9390 N   0  0  0  0  0  0  0  0  0  0  0  0
    0.9520   11.9130   -7.0260 N   0  0  0  0  0  0  0  0  0  0  0  0
   -0.9280   11.0830   -6.0640 C   0  0  0  0  0  0  0  0  0  0  0  0
    0.4020   10.9820   -7.8580 C   0  0  0  0  0  0  0  0  0  0  0  0
   -0.7680   10.4550   -7.2800 C   0  0  0  0  0  0  0  0  0  0  0  0
   -2.0330   10.8180   -5.1040 C   0  0  0  0  0  0  0  0  0  0  0  0
    0.9060   10.5090   -9.2120 C   0  0  0  0  0  0  0  0  0  0  0  0
   -1.6960    9.4180   -7.7950 C   0  0  0  0  0  0  0  0  0  0  0  0
   -3.0800    9.8560   -5.7150 C   0  0  0  0  0  0  0  0  0  0  0  0
    1.5790    9.3320   -9.1600 F   0  0  0  0  0  0  0  0  0  0  0  0
   -0.1340   10.2820  -10.0520 F   0  0  0  0  0  0  0  0  0  0  0  0
    1.6800   11.3700   -9.9000 F   0  0  0  0  0  0  0  0  0  0  0  0
   -2.4620    8.7800   -6.6270 C   0  0  0  0  0  0  0  0  0  0  0  0
  1  2  1  0
  2  3  2  0
  2  4  1  0
  3  5  1  0
  4  6  2  0
  3  7  1  0
  5  8  1  0
  6  9  1  0
  7  9  2  0
  6 10  1  0
  8 11  1  0
  9 12  1  0
 10 13  1  0
 12 13  1  0
 11 14  1  0
 14 15  2  3
 15 16  1  0
 15 17  1  0
 17 18  1  0
 18 19  1  0
 18 20  1  0
 19 21  2  0
 20 22  2  0
 21 22  1  0
 20 23  1  0
 21 24  1  0
 22 25  1  0
 23 26  1  0
 24 27  1  0
 24 28  1  0
 24 29  1  0
 25 30  1  0
 26 30  1  0
M  END
