mac-x0161-mac-x0584
     RDKit          3D

 21 24  0  0  0  0  0  0  0  0999 V2000
   -4.1850   14.8820    0.7640 N   0  0  0  0  0  0  0  0  0  0  0  0
   -3.3840   15.8630    0.0680 C   0  0  1  0  0  0  0  0  0  0  0  0
   -1.8740   15.6060    0.1660 C   0  0  2  0  0  0  0  0  0  0  0  0
   -3.9470   15.8160   -1.3090 N   0  0  0  0  0  0  0  0  0  0  0  0
   -3.0520   15.7390   -2.5120 C   0  0  0  0  0  0  0  0  0  0  0  0
   -1.6500   14.9150   -1.1350 C   0  0  1  0  0  0  0  0  0  0  0  0
   -1.3350   14.6840    1.1650 N   0  0  0  0  0  0  0  0  0  0  0  0
   -1.6240   15.8010   -2.2210 N   0  0  0  0  0  0  0  0  0  0  0  0
   -0.5880   14.0350   -1.0270 N   0  0  0  0  0  0  0  0  0  0  0  0
   -0.2120   14.1290    0.4120 C   0  0  0  0  0  0  0  0  0  0  0  0
   -0.6840   15.4630   -3.3520 C   0  0  0  0  0  0  0  0  0  0  0  0
   -1.4060   12.8720   -1.4090 C   0  0  0  0  0  0  0  0  0  0  0  0
   -0.6100   13.9530   -3.8060 C   0  0  1  0  0  0  0  0  0  0  0  0
   -2.4670   12.9810   -2.5430 C   0  0  0  0  0  0  0  0  0  0  0  0
   -0.0410   13.5380   -5.1510 C   0  0  0  0  0  0  0  0  0  0  0  0
    0.1750   13.1440   -2.9040 O   0  0  0  0  0  0  0  0  0  0  0  0
   -2.0000   13.4600   -3.8740 C   0  0  0  0  0  0  0  0  0  0  0  0
    0.6360   11.9350   -3.6040 N   0  0  0  0  0  0  0  0  0  0  0  0
    0.1000   12.0210   -4.9550 C   0  0  1  0  0  0  0  0  0  0  0  0
   -1.1480   11.3360   -5.0660 O   0  0  0  0  0  0  0  0  0  0  0  0
   -1.2150   10.3810   -6.1130 C   0  0  0  0  0  0  0  0  0  0  0  0
  2  1  1  1
  2  3  1  0
  2  4  1  0
  4  5  1  0
  3  6  1  0
  3  7  1  1
  5  8  1  0
  6  8  1  6
  6  9  1  0
  7 10  1  0
  9 10  1  0
  8 11  1  0
  9 12  1  0
 13 11  1  1
 12 14  1  0
 13 15  1  0
 13 16  1  0
 13 17  1  0
 14 17  1  0
 16 18  1  0
 15 19  1  0
 18 19  1  0
 19 20  1  1
 20 21  1  0
M  END
