mac-x0546-mac-x0142
     RDKit          3D

 32 37  0  0  0  0  0  0  0  0999 V2000
   -4.2390   15.5100   -6.3460 C   0  0  0  0  0  0  0  0  0  0  0  0
   -3.2220   16.4940   -6.5400 O   0  0  0  0  0  0  0  0  0  0  0  0
   -2.1830   16.4180   -5.6680 C   0  0  0  0  0  0  0  0  0  0  0  0
   -1.5400   15.2860   -5.2570 C   0  0  0  0  0  0  0  0  0  0  0  0
   -1.7950   17.7200   -5.1980 C   0  0  0  0  0  0  0  0  0  0  0  0
   -0.4230   15.3760   -4.2840 C   0  0  2  0  0  0  0  0  0  0  0  0
   -0.6560   17.9340   -4.5710 C   0  0  0  0  0  0  0  0  0  0  0  0
    0.1680   16.7540   -4.4080 C   0  0  0  0  0  0  0  0  0  0  0  0
    0.9190   14.6450   -4.3150 C   0  0  0  0  0  0  0  0  0  0  0  0
    1.2790   13.2060   -4.3330 C   0  0  1  0  0  0  0  0  0  0  0  0
    1.4080   16.8160   -4.3640 N   0  0  0  0  0  0  0  0  0  0  0  0
    1.8400   15.5430   -4.3150 C   0  0  0  0  0  0  0  0  0  0  0  0
    1.6450   12.6550   -2.9490 C   0  0  0  0  0  0  0  0  0  0  0  0
    0.3190   12.3360   -4.9830 C   0  0  1  0  0  0  0  0  0  0  0  0
    2.4240   13.1630   -2.1720 O   0  0  0  0  0  0  0  0  0  0  0  0
    0.9910   11.5000   -2.6470 O   0  0  0  0  0  0  0  0  0  0  0  0
   -0.1190   10.9720   -4.5680 C   0  0  0  0  0  0  0  0  0  0  0  0
   -1.0130   12.1580   -4.3000 C   0  0  2  0  0  0  0  0  0  0  0  0
   -2.1960   12.4360   -5.1640 C   0  0  0  0  0  0  0  0  0  0  0  0
   -1.2520   12.5070   -2.8380 C   0  0  0  0  0  0  0  0  0  0  0  0
   -3.2380   13.1670   -4.3280 C   0  0  0  0  0  0  0  0  0  0  0  0
   -1.5870   13.9250   -2.6220 N   0  0  0  0  0  0  0  0  0  0  0  0
   -2.6890   14.3430   -3.5030 C   0  0  0  0  0  0  0  0  0  0  0  0
   -1.6330   14.2840   -1.2720 C   0  0  0  0  0  0  0  0  0  0  0  0
   -0.5310   14.1360   -0.4400 N   0  0  0  0  0  0  0  0  0  0  0  0
   -2.7190   14.7800   -0.6930 C   0  0  0  0  0  0  0  0  0  0  0  0
   -0.5970   14.4140    0.9030 C   0  0  0  0  0  0  0  0  0  0  0  0
   -2.7120   15.0990    0.7510 C   0  0  0  0  0  0  0  0  0  0  0  0
   -4.0300   15.1230   -1.1100 C   0  0  0  0  0  0  0  0  0  0  0  0
   -1.6180   14.8810    1.5410 N   0  0  0  0  0  0  0  0  0  0  0  0
   -3.8590   15.5820    1.1390 N   0  0  0  0  0  0  0  0  0  0  0  0
   -4.6290   15.5790   -0.0170 C   0  0  0  0  0  0  0  0  0  0  0  0
  1  2  1  0
  2  3  1  0
  3  4  2  0
  3  5  1  0
  6  4  1  6
  5  7  2  0
  6  8  1  0
  7  8  1  0
  6  9  1  0
  9 10  1  0
  8 11  2  0
  9 12  2  0
 11 12  1  0
 10 13  1  1
 10 14  1  0
 13 15  2  0
 13 16  1  0
 14 17  1  1
 14 18  1  0
 18 17  1  1
 18 19  1  0
 18 20  1  0
 19 21  1  0
 20 22  1  0
 21 23  1  0
 22 23  1  0
 22 24  1  0
 24 25  1  0
 24 26  2  0
 25 27  1  0
 26 28  1  0
 26 29  1  0
 27 30  2  0
 28 30  1  0
 28 31  2  0
 29 32  2  0
 31 32  1  0
M  END
