mac-x0358-diamond-x0805_0_A
     RDKit          3D

 25 27  0  0  0  0  0  0  0  0999 V2000
   -0.5680   12.0710   -1.9210 O   0  0  0  0  0  0  0  0  0  0  0  0
    0.3960   12.1650   -2.9520 C   0  0  0  0  0  0  0  0  0  0  0  0
    1.1680   11.0910   -2.6460 O   0  0  0  0  0  0  0  0  0  0  0  0
   -0.0920   11.9560   -4.3990 C   0  0  0  0  0  0  0  0  0  0  0  0
    1.1160   13.4730   -2.9040 C   0  0  1  0  0  0  0  0  0  0  0  0
   -1.1300   12.9020   -4.9340 C   0  0  0  0  0  0  0  0  0  0  0  0
    2.1480   13.5640   -4.0270 C   0  0  0  0  0  0  0  0  0  0  0  0
    0.1620   14.7050   -2.7260 C   0  0  2  0  0  0  0  0  0  0  0  0
   -2.2460   12.3590   -5.5050 C   0  0  0  0  0  0  0  0  0  0  0  0
   -1.0260   14.2990   -4.8740 C   0  0  0  0  0  0  0  0  0  0  0  0
   -1.3250   14.4400   -2.4100 C   0  0  0  0  0  0  0  0  0  0  0  0
    2.4910   14.8950   -4.2830 O   0  0  0  0  0  0  0  0  0  0  0  0
    0.3660   15.8550   -3.7510 C   0  0  0  0  0  0  0  0  0  0  0  0
   -2.3890   11.0100   -5.5900 O   0  0  0  0  0  0  0  0  0  0  0  0
   -3.2680   13.1520   -6.0130 C   0  0  0  0  0  0  0  0  0  0  0  0
   -2.0470   15.1170   -5.3760 C   0  0  0  0  0  0  0  0  0  0  0  0
   -2.0890   13.3790   -2.9640 C   0  0  0  0  0  0  0  0  0  0  0  0
   -1.9680   15.2930   -1.5200 C   0  0  0  0  0  0  0  0  0  0  0  0
    1.3810   15.5620   -4.8400 C   0  0  0  0  0  0  0  0  0  0  0  0
   -3.1700   14.5360   -5.9460 C   0  0  0  0  0  0  0  0  0  0  0  0
   -3.2990   15.1240   -1.1760 C   0  0  0  0  0  0  0  0  0  0  0  0
   -3.4340   13.2010   -2.6260 C   0  0  0  0  0  0  0  0  0  0  0  0
   -3.9720   15.9280   -0.3080 O   0  0  0  0  0  0  0  0  0  0  0  0
   -4.0370   14.0770   -1.7290 C   0  0  0  0  0  0  0  0  0  0  0  0
   -4.2490   15.4080    0.9860 C   0  0  0  0  0  0  0  0  0  0  0  0
  2  1  1  0
  2  3  1  0
  2  4  1  0
  5  2  1  6
  4  6  1  0
  5  7  1  0
  5  8  1  0
  6  9  2  0
  6 10  1  0
  8 11  1  6
  7 12  1  0
  8 13  1  0
  9 14  1  0
  9 15  1  0
 10 16  2  0
 11 17  2  0
 11 18  1  0
 12 19  1  0
 13 19  1  0
 15 20  2  0
 16 20  1  0
 18 21  2  0
 17 22  1  0
 21 23  1  0
 21 24  1  0
 22 24  2  0
 23 25  1  0
M  END
