mac-x0436-mac-x0303
     RDKit          3D

 31 34  0  0  0  0  0  0  0  0999 V2000
    0.7320   11.1590   -2.9810 O   0  0  0  0  0  0  0  0  0  0  0  0
    1.2320   12.4070   -2.9370 C   0  0  0  0  0  0  0  0  0  0  0  0
    1.2630   12.9940   -1.8720 O   0  0  0  0  0  0  0  0  0  0  0  0
    1.7310   12.9680   -4.2520 C   0  0  0  0  0  0  0  0  0  0  0  0
    0.6670   13.2650   -5.3140 C   0  0  0  0  0  0  0  0  0  0  0  0
   -0.2050   12.0870   -5.6920 C   0  0  0  0  0  0  0  0  0  0  0  0
   -1.6220   12.0420   -5.1200 C   0  0  0  0  0  0  0  0  0  0  0  0
    0.2390   11.1720   -6.4960 N   0  0  0  0  0  0  0  0  0  0  0  0
   -2.1420   13.1060   -4.5980 N   0  0  0  0  0  0  0  0  0  0  0  0
   -2.3060   10.8300   -5.2130 N   0  0  0  0  0  0  0  0  0  0  0  0
   -0.5960   10.0900   -6.8140 C   0  0  0  0  0  0  0  0  0  0  0  0
   -3.4500   13.3370   -4.0270 C   0  0  0  0  0  0  0  0  0  0  0  0
   -1.8550    9.8990   -6.1920 C   0  0  0  0  0  0  0  0  0  0  0  0
   -0.1480    9.1860   -7.7760 C   0  0  0  0  0  0  0  0  0  0  0  0
   -3.5070   14.8270   -3.6050 C   0  0  0  0  0  0  0  0  0  0  0  0
   -0.9290    8.0880   -8.1320 C   0  0  0  0  0  0  0  0  0  0  0  0
   -2.6330    8.7900   -6.5580 C   0  0  0  0  0  0  0  0  0  0  0  0
   -2.1700    7.8900   -7.5230 C   0  0  0  0  0  0  0  0  0  0  0  0
   -4.0830   14.8890   -2.2220 C   0  0  0  0  0  0  0  0  0  0  0  0
   -5.4670   14.7680   -2.0780 C   0  0  0  0  0  0  0  0  0  0  0  0
   -3.2480   15.0420   -1.1060 C   0  0  0  0  0  0  0  0  0  0  0  0
   -5.9610   14.7770   -0.7860 C   0  0  0  0  0  0  0  0  0  0  0  0
   -3.7750   15.0600    0.1870 C   0  0  0  0  0  0  0  0  0  0  0  0
   -7.2290   14.6620   -0.2940 N   0  0  0  0  0  0  0  0  0  0  0  0
   -5.1580   14.9150    0.3350 C   0  0  0  0  0  0  0  0  0  0  0  0
   -7.1610   14.7180    1.0720 C   0  0  0  0  0  0  0  0  0  0  0  0
   -5.9130   14.8770    1.4710 N   0  0  0  0  0  0  0  0  0  0  0  0
   -8.5900   14.5960    2.0900 S   0  0  0  0  0  0  0  0  0  0  0  0
   -8.5900   13.0190    2.7150 N   0  0  0  0  0  0  0  0  0  0  0  0
   -8.3890   15.4590    3.2260 O   0  0  0  0  0  0  0  0  0  0  0  0
   -9.7480   14.6620    1.2380 O   0  0  0  0  0  0  0  0  0  0  0  0
  1  2  1  0
  2  3  2  0
  2  4  1  0
  4  5  1  0
  5  6  1  0
  6  7  1  0
  6  8  2  0
  7  9  2  3
  7 10  1  0
  8 11  1  0
  9 12  1  0
 10 13  1  0
 11 13  2  0
 11 14  1  0
 12 15  1  0
 14 16  2  0
 13 17  1  0
 16 18  1  0
 17 18  2  0
 15 19  1  0
 19 20  2  0
 19 21  1  0
 20 22  1  0
 21 23  2  0
 22 24  1  0
 22 25  2  0
 23 25  1  0
 24 26  1  0
 25 27  1  0
 26 27  2  0
 26 28  1  0
 28 29  1  0
 28 30  2  0
 28 31  2  0
M  END
