mac-x0124-mac-x0132
     RDKit          3D

 21 24  0  0  0  0  0  0  0  0999 V2000
    0.2780   15.5460   -2.8650 C   0  0  0  0  0  0  0  0  0  0  0  0
   -0.9300   15.5780   -2.0760 N   0  0  0  0  0  0  0  0  0  0  0  0
   -2.1570   15.9660   -2.5280 C   0  0  0  0  0  0  0  0  0  0  0  0
   -1.0180   15.2210   -0.7510 C   0  0  0  0  0  0  0  0  0  0  0  0
   -3.0470   15.8550   -1.4770 C   0  0  0  0  0  0  0  0  0  0  0  0
   -2.3380   15.3750   -0.3350 C   0  0  0  0  0  0  0  0  0  0  0  0
    0.0090   14.7970   -0.0140 N   0  0  0  0  0  0  0  0  0  0  0  0
   -2.6490   15.0440    1.0160 C   0  0  0  0  0  0  0  0  0  0  0  0
   -0.3830   14.5250    1.2440 C   0  0  0  0  0  0  0  0  0  0  0  0
   -3.9590   15.1360    1.5590 N   0  0  0  0  0  0  0  0  0  0  0  0
   -1.6120   14.6230    1.7800 N   0  0  0  0  0  0  0  0  0  0  0  0
   -5.1850   14.9130    0.8650 C   0  0  0  0  0  0  0  0  0  0  0  0
   -5.1510   14.8040   -0.5280 C   0  0  0  0  0  0  0  0  0  0  0  0
   -6.3540   14.8110    1.5370 N   0  0  0  0  0  0  0  0  0  0  0  0
   -6.3740   14.6110   -1.1690 C   0  0  0  0  0  0  0  0  0  0  0  0
   -7.4610   14.6160    0.8180 C   0  0  0  0  0  0  0  0  0  0  0  0
   -3.9750   14.8770   -1.3040 C   0  0  0  0  0  0  0  0  0  0  0  0
   -7.5330   14.5160   -0.5130 N   0  0  0  0  0  0  0  0  0  0  0  0
   -6.3840   14.5090   -2.5550 C   0  0  0  0  0  0  0  0  0  0  0  0
   -4.0090   14.7650   -2.6900 C   0  0  0  0  0  0  0  0  0  0  0  0
   -5.2180   14.5840   -3.3170 C   0  0  0  0  0  0  0  0  0  0  0  0
  1  2  1  0
  2  3  1  0
  2  4  1  0
  3  5  2  0
  4  6  2  0
  5  6  1  0
  4  7  1  0
  6  8  1  0
  7  9  2  0
  8 10  1  0
  8 11  2  0
  9 11  1  0
 10 12  1  0
 12 13  1  0
 12 14  2  0
 13 15  2  0
 14 16  1  0
 13 17  1  0
 15 18  1  0
 16 18  2  0
 15 19  1  0
 17 20  2  0
 19 21  2  0
 20 21  1  0
M  END
