mac-x0572-mac-x0387
     RDKit          3D

 23 26  0  0  0  0  0  0  0  0999 V2000
   -7.6990   14.6960    3.4000 C   0  0  0  0  0  0  0  0  0  0  0  0
   -7.1820   14.5740    1.9860 C   0  0  0  0  0  0  0  0  0  0  0  0
   -5.7940   14.6880    1.8610 N   0  0  0  0  0  0  0  0  0  0  0  0
   -8.0270   14.3640    0.9460 C   0  0  0  0  0  0  0  0  0  0  0  0
   -9.3960   14.2420    1.0440 O   0  0  0  0  0  0  0  0  0  0  0  0
   -7.4180   14.2780   -0.3980 C   0  0  0  0  0  0  0  0  0  0  0  0
   -5.2990   14.9490    0.6890 C   0  0  0  0  0  0  0  0  0  0  0  0
   -7.8800   13.5680   -1.2820 O   0  0  0  0  0  0  0  0  0  0  0  0
   -6.2580   15.1640   -0.4970 C   0  0  1  0  0  0  0  0  0  0  0  0
   -3.8520   15.0500    0.3160 C   0  0  0  0  0  0  0  0  0  0  0  0
   -3.5740   15.3530   -0.9450 C   0  0  0  0  0  0  0  0  0  0  0  0
   -5.7210   15.4860   -1.8280 C   0  0  0  0  0  0  0  0  0  0  0  0
   -2.4940   14.7850    0.6800 C   0  0  0  0  0  0  0  0  0  0  0  0
   -4.4510   15.6020   -2.0130 C   0  0  0  0  0  0  0  0  0  0  0  0
   -2.0200   14.6890   -0.6110 C   0  0  0  0  0  0  0  0  0  0  0  0
   -1.7720   14.6480    1.8200 N   0  0  0  0  0  0  0  0  0  0  0  0
   -0.7110   14.4520   -0.8480 C   0  0  0  0  0  0  0  0  0  0  0  0
   -0.4470   14.4050    1.5370 C   0  0  0  0  0  0  0  0  0  0  0  0
   -2.8940   14.8350   -1.7190 C   0  0  0  0  0  0  0  0  0  0  0  0
    0.0880   14.3090    0.2400 C   0  0  0  0  0  0  0  0  0  0  0  0
   -0.2470   14.3650   -2.1740 C   0  0  0  0  0  0  0  0  0  0  0  0
   -2.4560   14.7510   -3.0280 C   0  0  0  0  0  0  0  0  0  0  0  0
   -1.1180   14.5150   -3.2580 C   0  0  0  0  0  0  0  0  0  0  0  0
  1  2  1  0
  2  3  1  0
  2  4  2  0
  4  5  1  0
  4  6  1  0
  3  7  2  0
  6  8  2  0
  6  9  1  0
  7  9  1  0
  7 10  1  0
 10 11  2  0
  9 12  1  6
 10 13  1  0
 11 14  1  0
 12 14  2  0
 13 15  1  0
 13 16  2  0
 15 17  2  0
 16 18  1  0
 15 19  1  0
 17 20  1  0
 18 20  2  0
 17 21  1  0
 19 22  2  0
 21 23  2  0
 22 23  1  0
M  END
