mac-x0564-mac-x0433
     RDKit          3D

 17 19  0  0  0  0  0  0  0  0999 V2000
    0.9570   14.4700   -1.2410 O   0  0  0  0  0  0  0  0  0  0  0  0
    0.1650   14.4550   -2.1720 C   0  0  0  0  0  0  0  0  0  0  0  0
    0.5560   14.2610   -3.4940 N   0  0  0  0  0  0  0  0  0  0  0  0
   -1.2580   14.6130   -2.0370 C   0  0  0  0  0  0  0  0  0  0  0  0
   -2.1230   14.7320   -3.0870 C   0  0  0  0  0  0  0  0  0  0  0  0
   -0.3210   14.3960   -4.4420 C   0  0  0  0  0  0  0  0  0  0  0  0
   -1.9260   14.6570   -0.8600 O   0  0  0  0  0  0  0  0  0  0  0  0
   -1.6590   14.7190   -4.3470 N   0  0  0  0  0  0  0  0  0  0  0  0
   -3.2500   14.7850   -1.1850 C   0  0  0  0  0  0  0  0  0  0  0  0
   -3.4160   14.8380   -2.5590 C   0  0  0  0  0  0  0  0  0  0  0  0
   -4.7000   14.9680   -3.0670 C   0  0  0  0  0  0  0  0  0  0  0  0
   -4.2750   14.8400   -0.2540 C   0  0  0  0  0  0  0  0  0  0  0  0
   -3.9030   14.7760    1.1890 C   0  0  0  0  0  0  0  0  0  0  0  0
   -5.7810   15.0130   -2.1870 C   0  0  0  0  0  0  0  0  0  0  0  0
   -5.6020   14.9370   -0.7850 C   0  0  0  0  0  0  0  0  0  0  0  0
   -6.8340   14.9390    0.1130 C   0  0  0  0  0  0  0  0  0  0  0  0
   -7.0440   15.1240   -2.7850 N   0  0  0  0  0  0  0  0  0  0  0  0
  1  2  2  0
  2  3  1  0
  2  4  1  0
  4  5  2  0
  3  6  2  0
  4  7  1  0
  5  8  1  0
  6  8  1  0
  7  9  1  0
  5 10  1  0
  9 10  2  0
 10 11  1  0
  9 12  1  0
 12 13  1  0
 11 14  2  0
 12 15  2  0
 14 15  1  0
 15 16  1  0
 14 17  1  0
M  END
