mac-x0142-diamond-x0864_0_A
     RDKit          3D

 28 32  0  0  0  0  0  0  0  0999 V2000
    1.5530   11.7970   -6.8430 O   0  0  0  0  0  0  0  0  0  0  0  0
    0.4840   11.3410   -6.4680 C   0  0  0  0  0  0  0  0  0  0  0  0
   -0.2100   11.7430   -5.3290 N   0  0  0  0  0  0  0  0  0  0  0  0
   -0.1280   10.2620   -7.2820 C   0  0  0  0  0  0  0  0  0  0  0  0
   -0.3710   13.1890   -5.0430 C   0  0  2  0  0  0  0  0  0  0  0  0
   -1.2420   10.9420   -4.8400 C   0  0  0  0  0  0  0  0  0  0  0  0
   -1.1850    9.5890   -6.8180 C   0  0  0  0  0  0  0  0  0  0  0  0
   -2.0010    8.2210   -7.7840 Br  0  0  0  0  0  0  0  0  0  0  0  0
    0.7520   13.8190   -4.1930 C   0  0  2  0  0  0  0  0  0  0  0  0
   -1.8130   13.5810   -4.6830 C   0  0  0  0  0  0  0  0  0  0  0  0
   -1.7280    9.9100   -5.5290 C   0  0  0  0  0  0  0  0  0  0  0  0
    2.1500   13.2850   -4.4730 C   0  0  0  0  0  0  0  0  0  0  0  0
    1.5320   13.0380   -3.1310 C   0  0  2  0  0  0  0  0  0  0  0  0
   -1.9840   14.7970   -3.7930 C   0  0  0  0  0  0  0  0  0  0  0  0
    0.3880   15.1440   -3.5580 C   0  0  0  0  0  0  0  0  0  0  0  0
   -0.8770   14.8710   -2.8370 N   0  0  0  0  0  0  0  0  0  0  0  0
    0.8190   11.9150   -2.5390 C   0  0  0  0  0  0  0  0  0  0  0  0
   -1.0990   14.8370   -1.4350 C   0  0  0  0  0  0  0  0  0  0  0  0
    0.6320   10.8420   -3.3030 O   0  0  0  0  0  0  0  0  0  0  0  0
    0.4160   11.9890   -1.4010 O   0  0  0  0  0  0  0  0  0  0  0  0
   -0.0910   14.6950   -0.4930 N   0  0  0  0  0  0  0  0  0  0  0  0
   -2.3360   14.9720   -0.8840 C   0  0  0  0  0  0  0  0  0  0  0  0
   -0.3470   14.6570    0.8640 C   0  0  0  0  0  0  0  0  0  0  0  0
   -2.5180   14.9580    0.5940 C   0  0  0  0  0  0  0  0  0  0  0  0
   -3.6710   15.1750   -1.3580 C   0  0  0  0  0  0  0  0  0  0  0  0
   -1.4860   14.7600    1.4540 N   0  0  0  0  0  0  0  0  0  0  0  0
   -3.7540   15.1720    0.9430 N   0  0  0  0  0  0  0  0  0  0  0  0
   -4.4290   15.2950   -0.2590 C   0  0  0  0  0  0  0  0  0  0  0  0
  1  2  2  0
  2  3  1  0
  2  4  1  0
  5  3  1  1
  3  6  1  0
  4  7  2  0
  7  8  1  0
  5  9  1  0
  5 10  1  0
  6 11  2  0
  7 11  1  0
  9 12  1  6
  9 13  1  0
 12 13  1  0
 10 14  1  0
  9 15  1  0
 14 16  1  0
 15 16  1  0
 13 17  1  6
 16 18  1  0
 17 19  1  0
 17 20  2  0
 18 21  1  0
 18 22  2  0
 21 23  1  0
 22 24  1  0
 22 25  1  0
 23 26  2  0
 24 26  1  0
 24 27  2  0
 25 28  2  0
 27 28  1  0
M  END
