mac-x0402-mac-x0411
     RDKit          3D

 26 28  0  0  0  0  0  0  0  0999 V2000
   -1.3470   14.7250   -3.0310 Cl  0  0  0  0  0  0  0  0  0  0  0  0
   -2.8070   14.7590   -2.1070 C   0  0  0  0  0  0  0  0  0  0  0  0
   -4.0320   14.6900   -2.7550 C   0  0  0  0  0  0  0  0  0  0  0  0
   -2.6880   14.8530   -0.7230 C   0  0  0  0  0  0  0  0  0  0  0  0
   -3.9910   14.5640   -4.2760 C   0  0  0  0  0  0  0  0  0  0  0  0
   -3.8540   14.8790    0.0360 C   0  0  0  0  0  0  0  0  0  0  0  0
   -5.2060   14.7290   -1.9610 C   0  0  0  0  0  0  0  0  0  0  0  0
   -3.6160   13.1630   -4.8560 C   0  0  0  0  0  0  0  0  0  0  0  0
   -5.1180   14.8200   -0.5470 C   0  0  0  0  0  0  0  0  0  0  0  0
   -4.0160   14.9790    1.7310 S   0  0  0  0  0  0  0  0  0  0  0  0
   -2.1160   12.7190   -4.8370 C   0  0  0  0  0  0  0  0  0  0  0  0
   -5.7220   14.9260    1.5720 C   0  0  0  0  0  0  0  0  0  0  0  0
   -6.1740   14.8500    0.3450 N   0  0  0  0  0  0  0  0  0  0  0  0
   -6.5270   14.9630    2.6480 N   0  0  0  0  0  0  0  0  0  0  0  0
   -1.8930   11.3580   -5.5100 C   0  0  0  0  0  0  0  0  0  0  0  0
   -0.6980   10.9000   -6.1630 C   0  0  0  0  0  0  0  0  0  0  0  0
   -2.9960   10.4790   -5.4790 C   0  0  0  0  0  0  0  0  0  0  0  0
    0.4480   11.6770   -6.2470 O   0  0  0  0  0  0  0  0  0  0  0  0
   -2.9460    9.2150   -6.0600 C   0  0  0  0  0  0  0  0  0  0  0  0
   -0.6790    9.6100   -6.7580 C   0  0  0  0  0  0  0  0  0  0  0  0
    0.6860    8.9650   -7.6020 Cl  0  0  0  0  0  0  0  0  0  0  0  0
    0.6910   12.5960   -5.1660 C   0  0  0  0  0  0  0  0  0  0  0  0
   -1.7950    8.7850   -6.6980 C   0  0  0  0  0  0  0  0  0  0  0  0
    0.8250   11.9120   -3.8140 C   0  0  0  0  0  0  0  0  0  0  0  0
    1.5280   12.6210   -2.9050 O   0  0  0  0  0  0  0  0  0  0  0  0
    0.3720   10.8240   -3.4960 O   0  0  0  0  0  0  0  0  0  0  0  0
  1  2  1  0
  2  3  2  0
  2  4  1  0
  3  5  1  0
  4  6  2  0
  3  7  1  0
  5  8  1  0
  6  9  1  0
  7  9  2  0
  6 10  1  0
  8 11  1  0
 10 12  1  0
  9 13  1  0
 12 13  2  0
 12 14  1  0
 11 15  1  0
 15 16  2  0
 15 17  1  0
 16 18  1  0
 17 19  2  0
 16 20  1  0
 20 21  1  0
 18 22  1  0
 19 23  1  0
 20 23  2  0
 22 24  1  0
 24 25  1  0
 24 26  2  0
M  END
