mac-x0341-diamond-x0950_1_A
     RDKit          3D

 20 21  0  0  0  0  0  0  0  0999 V2000
   -6.8070   14.7220    2.2860 N   0  0  0  0  0  0  0  0  0  0  0  0
   -6.0290   14.7660    1.1800 C   0  0  0  0  0  0  0  0  0  0  0  0
   -4.7500   14.8510    1.3310 N   0  0  0  0  0  0  0  0  0  0  0  0
   -6.6190   14.7130   -0.0490 N   0  0  0  0  0  0  0  0  0  0  0  0
   -5.9120   14.9430   -1.2050 C   0  0  0  0  0  0  0  0  0  0  0  0
   -3.9260   14.8550    0.2080 C   0  0  0  0  0  0  0  0  0  0  0  0
   -6.4630   15.1670   -2.2730 O   0  0  0  0  0  0  0  0  0  0  0  0
   -4.4420   14.8980   -1.0790 C   0  0  0  0  0  0  0  0  0  0  0  0
   -2.5420   14.8070    0.3900 C   0  0  0  0  0  0  0  0  0  0  0  0
   -1.6580   14.8000   -0.7070 C   0  0  0  0  0  0  0  0  0  0  0  0
   -3.5980   14.8920   -2.1910 C   0  0  0  0  0  0  0  0  0  0  0  0
   -0.1500   14.7660   -0.4550 C   0  0  0  0  0  0  0  0  0  0  0  0
   -2.2090   14.8410   -2.0060 C   0  0  0  0  0  0  0  0  0  0  0  0
    0.6650   13.6510   -1.1170 C   0  0  0  0  0  0  0  0  0  0  0  0
    0.3700   13.4990   -2.5070 O   0  0  0  0  0  0  0  0  0  0  0  0
    0.7100   12.3110   -3.0780 C   0  0  0  0  0  0  0  0  0  0  0  0
    1.3190   12.5490   -4.4590 C   0  0  2  0  0  0  0  0  0  0  0  0
    0.5530   11.1990   -2.5810 O   0  0  0  0  0  0  0  0  0  0  0  0
    1.1280   13.9910   -4.8860 C   0  0  0  0  0  0  0  0  0  0  0  0
    0.7100   11.7070   -5.4410 O   0  0  0  0  0  0  0  0  0  0  0  0
  1  2  1  0
  2  3  2  0
  2  4  1  0
  4  5  1  0
  3  6  1  0
  5  7  2  0
  5  8  1  0
  6  8  2  0
  6  9  1  0
  9 10  2  0
  8 11  1  0
 10 12  1  0
 10 13  1  0
 11 13  2  0
 12 14  1  0
 14 15  1  0
 15 16  1  0
 16 17  1  0
 16 18  2  0
 17 19  1  6
 17 20  1  0
M  END
