mac-x0385-diamond-x0371_0_A
     RDKit          3D

 27 30  0  0  0  0  0  0  0  0999 V2000
   -4.6870   15.6990   -1.0030 C   0  0  0  0  0  0  0  0  0  0  0  0
   -3.5030   15.2030   -0.2350 C   0  0  0  0  0  0  0  0  0  0  0  0
   -2.3060   14.9840   -0.8820 C   0  0  0  0  0  0  0  0  0  0  0  0
   -3.5350   14.9380    1.1210 C   0  0  0  0  0  0  0  0  0  0  0  0
   -4.7820   15.1030    1.7650 N   0  0  0  0  0  0  0  0  0  0  0  0
   -2.4340   14.5260    1.7800 N   0  0  0  0  0  0  0  0  0  0  0  0
   -1.2070   14.5700   -0.2740 N   0  0  0  0  0  0  0  0  0  0  0  0
   -1.3250   14.3690    1.0380 C   0  0  0  0  0  0  0  0  0  0  0  0
   -5.7650   14.7180    0.8320 N   0  0  0  0  0  0  0  0  0  0  0  0
   -0.0990   13.9340    1.7080 C   0  0  0  0  0  0  0  0  0  0  0  0
   -7.0850   14.2460    0.9250 C   0  0  0  0  0  0  0  0  0  0  0  0
   -5.4720   14.7650   -0.5220 C   0  0  0  0  0  0  0  0  0  0  0  0
   -7.8650   13.9980    2.1660 C   0  0  0  0  0  0  0  0  0  0  0  0
   -7.5970   14.0240   -0.2800 N   0  0  0  0  0  0  0  0  0  0  0  0
   -6.6150   14.3360   -1.1740 C   0  0  0  0  0  0  0  0  0  0  0  0
   -4.3080   15.1440   -1.2330 C   0  0  0  0  0  0  0  0  0  0  0  0
   -7.4990   14.9450    3.1680 N   0  0  0  0  0  0  0  0  0  0  0  0
   -4.3360   15.0720   -2.6290 C   0  0  0  0  0  0  0  0  0  0  0  0
   -6.6270   14.2750   -2.5770 C   0  0  0  0  0  0  0  0  0  0  0  0
   -8.4840   15.7090    3.7590 C   0  0  0  0  0  0  0  0  0  0  0  0
   -5.4790   14.6460   -3.2940 C   0  0  0  0  0  0  0  0  0  0  0  0
   -9.2940   16.3510    3.0880 O   0  0  0  0  0  0  0  0  0  0  0  0
   -8.4970   15.6750    5.2000 C   0  0  0  0  0  0  0  0  0  0  0  0
   -7.9820   14.5680    5.8130 O   0  0  0  0  0  0  0  0  0  0  0  0
   -8.9400   16.5580    6.1660 C   0  0  0  0  0  0  0  0  0  0  0  0
   -8.6760   15.9540    7.4210 C   0  0  0  0  0  0  0  0  0  0  0  0
   -8.0910   14.7430    7.1470 C   0  0  0  0  0  0  0  0  0  0  0  0
  1  2  1  0
  2  3  2  0
  2  4  1  0
  4  5  1  0
  4  6  2  0
  3  7  1  0
  6  8  1  0
  7  8  2  0
  5  9  1  0
  8 10  1  0
  9 11  1  0
  9 12  1  0
 11 13  1  0
 11 14  2  0
 12 15  2  0
 14 15  1  0
 12 16  1  0
 13 17  1  0
 16 18  2  0
 15 19  1  0
 17 20  1  0
 18 21  1  0
 19 21  2  0
 20 22  2  0
 20 23  1  0
 23 24  1  0
 23 25  2  0
 25 26  1  0
 24 27  1  0
 26 27  2  0
M  END
