mac-x0397-diamond-x0104_0_A
     RDKit          3D

 20 22  0  0  0  0  0  0  0  0999 V2000
   -6.0900   15.1170   -2.2960 C   0  0  0  0  0  0  0  0  0  0  0  0
   -5.5430   14.5950   -3.6140 C   0  0  0  0  0  0  0  0  0  0  0  0
   -4.9230   15.0730   -1.3850 C   0  0  0  0  0  0  0  0  0  0  0  0
   -4.9750   14.9140    0.0180 C   0  0  0  0  0  0  0  0  0  0  0  0
   -3.6800   15.1890   -1.9970 C   0  0  0  0  0  0  0  0  0  0  0  0
   -6.1200   14.7800    0.7920 N   0  0  0  0  0  0  0  0  0  0  0  0
   -3.7810   14.8790    0.7310 C   0  0  0  0  0  0  0  0  0  0  0  0
   -2.5250   15.1440   -1.2660 C   0  0  0  0  0  0  0  0  0  0  0  0
   -5.7660   14.6500    2.0490 C   0  0  0  0  0  0  0  0  0  0  0  0
   -4.1090   14.6810    2.4020 S   0  0  0  0  0  0  0  0  0  0  0  0
   -2.5470   14.9910    0.1130 C   0  0  0  0  0  0  0  0  0  0  0  0
   -6.5730   14.4840    3.1400 N   0  0  0  0  0  0  0  0  0  0  0  0
   -7.7940   15.0610    3.3950 C   0  0  0  0  0  0  0  0  0  0  0  0
   -8.0410   15.2880    4.7230 N   0  0  0  0  0  0  0  0  0  0  0  0
   -8.5350   15.3090    2.4420 O   0  0  0  0  0  0  0  0  0  0  0  0
   -9.2440   15.1870    5.3930 C   0  0  0  0  0  0  0  0  0  0  0  0
   -9.3790   15.2310    6.7640 C   0  0  0  0  0  0  0  0  0  0  0  0
  -10.7380   14.9910    4.6130 S   0  0  0  0  0  0  0  0  0  0  0  0
  -11.5870   14.9620    6.0990 C   0  0  0  0  0  0  0  0  0  0  0  0
  -10.7390   15.1010    7.1760 C   0  0  0  0  0  0  0  0  0  0  0  0
  1  2  1  0
  1  3  1  0
  3  4  2  0
  3  5  1  0
  4  6  1  0
  4  7  1  0
  5  8  2  0
  6  9  2  0
  7 10  1  0
  9 10  1  0
  7 11  2  0
  8 11  1  0
  9 12  1  0
 12 13  1  0
 13 14  1  0
 13 15  2  0
 14 16  1  0
 16 17  2  0
 16 18  1  0
 18 19  1  0
 17 20  1  0
 19 20  2  0
M  END
