mac-x0358-diamond-x0950_1_A
     RDKit          3D

 12 12  0  0  0  0  0  0  0  0999 V2000
    1.4910   12.8090   -1.9360 O   0  0  0  0  0  0  0  0  0  0  0  0
    0.8440   12.3740   -3.0350 C   0  0  0  0  0  0  0  0  0  0  0  0
    0.3790   11.2440   -3.0910 O   0  0  0  0  0  0  0  0  0  0  0  0
    0.7670   13.3870   -4.1670 C   0  0  1  0  0  0  0  0  0  0  0  0
    1.7760   13.0830   -5.2560 C   0  0  0  0  0  0  0  0  0  0  0  0
   -0.6150   13.6670   -4.7160 C   0  0  0  0  0  0  0  0  0  0  0  0
   -1.5090   12.6860   -5.1620 C   0  0  0  0  0  0  0  0  0  0  0  0
   -1.0220   15.0110   -4.7810 C   0  0  0  0  0  0  0  0  0  0  0  0
   -1.1400   11.3650   -5.1080 O   0  0  0  0  0  0  0  0  0  0  0  0
   -2.7700   13.0290   -5.6580 C   0  0  0  0  0  0  0  0  0  0  0  0
   -2.2800   15.3620   -5.2740 C   0  0  0  0  0  0  0  0  0  0  0  0
   -3.1540   14.3700   -5.7130 C   0  0  0  0  0  0  0  0  0  0  0  0
  1  2  1  0
  2  3  2  0
  2  4  1  0
  4  5  1  6
  4  6  1  0
  6  7  2  0
  6  8  1  0
  7  9  1  0
  7 10  1  0
  8 11  2  0
 10 12  2  0
 11 12  1  0
M  END
