mac-x0228-mac-x0161
     RDKit          3D

 29 33  0  0  0  0  0  0  0  0999 V2000
   -3.6320   12.1100   -3.6720 O   0  0  0  0  0  0  0  0  0  0  0  0
   -3.3210   13.2130   -2.9260 C   0  0  0  0  0  0  0  0  0  0  0  0
   -2.0830   13.6440   -2.8330 C   0  0  0  0  0  0  0  0  0  0  0  0
   -4.4640   13.8170   -2.2530 C   0  0  0  0  0  0  0  0  0  0  0  0
   -4.6610   13.5290   -0.9010 C   0  0  0  0  0  0  0  0  0  0  0  0
   -5.3420   14.6640   -2.9480 C   0  0  0  0  0  0  0  0  0  0  0  0
   -1.7850   14.7280   -2.0700 N   0  0  0  0  0  0  0  0  0  0  0  0
   -1.1150   12.8860   -3.5360 C   0  0  0  0  0  0  0  0  0  0  0  0
   -5.7440   14.0970   -0.2700 C   0  0  0  0  0  0  0  0  0  0  0  0
   -6.4340   15.2240   -2.2890 C   0  0  0  0  0  0  0  0  0  0  0  0
   -2.8010   15.7480   -1.9850 C   0  0  0  0  0  0  0  0  0  0  0  0
   -1.0730   14.4940   -0.8520 C   0  0  2  0  0  0  0  0  0  0  0  0
   -1.3700   12.0910   -4.6220 C   0  0  0  0  0  0  0  0  0  0  0  0
    0.2270   12.7960   -3.2490 O   0  0  0  0  0  0  0  0  0  0  0  0
   -6.6110   14.9210   -0.9600 C   0  0  0  0  0  0  0  0  0  0  0  0
   -6.1970   13.9800    1.1320 C   0  0  0  0  0  0  0  0  0  0  0  0
   -3.6870   15.8630   -0.8300 N   0  0  0  0  0  0  0  0  0  0  0  0
   -1.9380   14.4890    0.4340 C   0  0  2  0  0  0  0  0  0  0  0  0
    0.0340   15.3550   -0.4970 N   0  0  0  0  0  0  0  0  0  0  0  0
    0.8290   11.9390   -4.1500 N   0  0  0  0  0  0  0  0  0  0  0  0
   -0.1570   11.5340   -4.9510 C   0  0  0  0  0  0  0  0  0  0  0  0
    0.0060   10.6710   -5.9670 O   0  0  0  0  0  0  0  0  0  0  0  0
   -7.6400   15.3840   -0.1880 O   0  0  0  0  0  0  0  0  0  0  0  0
   -7.6240   14.4710    0.9370 C   0  0  0  0  0  0  0  0  0  0  0  0
   -3.3920   14.9750    0.2640 C   0  0  1  0  0  0  0  0  0  0  0  0
   -1.1870   15.3400    1.3610 N   0  0  0  0  0  0  0  0  0  0  0  0
    0.1390   15.0640    0.8880 C   0  0  0  0  0  0  0  0  0  0  0  0
   -3.9170   15.6710    1.4320 N   0  0  0  0  0  0  0  0  0  0  0  0
   -1.1080    9.8050   -6.1460 C   0  0  0  0  0  0  0  0  0  0  0  0
  1  2  1  0
  2  3  2  3
  2  4  1  0
  4  5  2  0
  4  6  1  0
  3  7  1  0
  3  8  1  0
  5  9  1  0
  6 10  2  0
  7 11  1  0
  7 12  1  0
  8 13  2  0
  8 14  1  0
  9 15  2  0
 10 15  1  0
  9 16  1  0
 11 17  1  0
 12 18  1  0
 12 19  1  1
 14 20  1  0
 13 21  1  0
 20 21  2  0
 21 22  1  0
 15 23  1  0
 16 24  1  0
 23 24  1  0
 17 25  1  0
 18 25  1  0
 18 26  1  1
 19 27  1  0
 26 27  1  0
 25 28  1  1
 22 29  1  0
M  END
