mac-x0179-diamond-x0689_0_A
     RDKit          3D

 25 27  0  0  0  0  0  0  0  0999 V2000
    2.3280   12.5090   -2.7160 O   0  0  0  0  0  0  0  0  0  0  0  0
    1.0180   12.2780   -3.1590 C   0  0  0  0  0  0  0  0  0  0  0  0
    0.7760   10.8860   -3.1140 O   0  0  0  0  0  0  0  0  0  0  0  0
    0.7190   12.8720   -4.5610 C   0  0  0  0  0  0  0  0  0  0  0  0
    0.1010   12.8420   -2.1110 C   0  0  0  0  0  0  0  0  0  0  0  0
    0.6120   13.9500   -1.1970 C   0  0  0  0  0  0  0  0  0  0  0  0
    0.0830   11.9400   -5.4730 N   0  0  0  0  0  0  0  0  0  0  0  0
    0.7280   11.4540   -6.5550 C   0  0  0  0  0  0  0  0  0  0  0  0
   -1.0560   11.2300   -5.2070 C   0  0  0  0  0  0  0  0  0  0  0  0
   -0.4830   14.2970   -0.3010 C   0  0  0  0  0  0  0  0  0  0  0  0
    1.7860   11.8170   -6.9850 O   0  0  0  0  0  0  0  0  0  0  0  0
   -1.8480   11.3570   -4.2940 O   0  0  0  0  0  0  0  0  0  0  0  0
   -0.0810   10.3720   -7.1000 C   0  0  0  0  0  0  0  0  0  0  0  0
   -1.1760   10.2300   -6.2710 C   0  0  0  0  0  0  0  0  0  0  0  0
   -1.6730   14.6360   -0.8540 C   0  0  0  0  0  0  0  0  0  0  0  0
   -0.4520   14.2980    1.0740 C   0  0  0  0  0  0  0  0  0  0  0  0
    0.1160    9.5790   -8.2100 C   0  0  0  0  0  0  0  0  0  0  0  0
   -2.1490    9.2760   -6.5070 C   0  0  0  0  0  0  0  0  0  0  0  0
   -2.7490   14.9530   -0.1580 N   0  0  0  0  0  0  0  0  0  0  0  0
   -1.5110   14.6090    1.8280 N   0  0  0  0  0  0  0  0  0  0  0  0
   -0.8550    8.6040   -8.4720 C   0  0  0  0  0  0  0  0  0  0  0  0
   -1.9750    8.4550   -7.6270 C   0  0  0  0  0  0  0  0  0  0  0  0
   -2.6270   14.9300    1.1610 C   0  0  0  0  0  0  0  0  0  0  0  0
   -3.7920   15.2790    1.7930 N   0  0  0  0  0  0  0  0  0  0  0  0
   -4.8960   15.2860    0.8800 C   0  0  0  0  0  0  0  0  0  0  0  0
  2  1  1  0
  2  3  1  0
  2  4  1  0
  2  5  1  0
  5  6  1  0
  4  7  1  0
  7  8  1  0
  7  9  1  0
  6 10  1  0
  8 11  2  0
  9 12  2  0
  8 13  1  0
  9 14  1  0
 13 14  2  0
 10 15  2  0
 10 16  1  0
 13 17  1  0
 14 18  1  0
 15 19  1  0
 16 20  2  0
 17 21  2  0
 18 22  2  0
 21 22  1  0
 19 23  2  0
 20 23  1  0
 23 24  1  0
 24 25  1  0
M  END
