mac-x0319-mac-x1493
     RDKit          3D

 24 26  0  0  0  0  0  0  0  0999 V2000
    0.5100   10.4920   -2.5150 O   0  0  0  0  0  0  0  0  0  0  0  0
    0.8170   11.8150   -2.4670 C   0  0  0  0  0  0  0  0  0  0  0  0
    0.6550   12.4040   -1.4100 O   0  0  0  0  0  0  0  0  0  0  0  0
    1.3230   12.3920   -3.7800 C   0  0  0  0  0  0  0  0  0  0  0  0
    0.7030   13.7360   -4.0610 C   0  0  0  0  0  0  0  0  0  0  0  0
    1.4000   14.8480   -4.5490 C   0  0  0  0  0  0  0  0  0  0  0  0
   -0.6460   13.8760   -3.8070 C   0  0  0  0  0  0  0  0  0  0  0  0
    0.7170   16.0570   -4.7710 C   0  0  0  0  0  0  0  0  0  0  0  0
   -1.2960   15.0720   -4.0200 C   0  0  0  0  0  0  0  0  0  0  0  0
    1.3110   17.1770   -5.2470 O   0  0  0  0  0  0  0  0  0  0  0  0
   -2.6170   15.0940   -3.6880 N   0  0  0  0  0  0  0  0  0  0  0  0
   -0.6270   16.1720   -4.5100 C   0  0  0  0  0  0  0  0  0  0  0  0
   -2.6750   14.9500   -2.4120 C   0  0  0  0  0  0  0  0  0  0  0  0
   -1.5720   14.8180   -1.6350 O   0  0  0  0  0  0  0  0  0  0  0  0
   -3.9080   14.8900   -1.6720 C   0  0  0  0  0  0  0  0  0  0  0  0
   -3.8980   14.9960   -0.2900 C   0  0  0  0  0  0  0  0  0  0  0  0
   -5.1030   14.7160   -2.3270 C   0  0  0  0  0  0  0  0  0  0  0  0
   -5.1070   14.9110    0.3900 C   0  0  0  0  0  0  0  0  0  0  0  0
   -6.2860   14.6330   -1.7030 N   0  0  0  0  0  0  0  0  0  0  0  0
   -6.2880   14.7240   -0.3660 C   0  0  0  0  0  0  0  0  0  0  0  0
   -5.1750   15.0030    1.7820 C   0  0  0  0  0  0  0  0  0  0  0  0
   -7.4930   14.6290    0.2990 C   0  0  0  0  0  0  0  0  0  0  0  0
   -6.4120   14.9050    2.4220 C   0  0  0  0  0  0  0  0  0  0  0  0
   -7.5700   14.7150    1.6870 C   0  0  0  0  0  0  0  0  0  0  0  0
  1  2  1  0
  2  3  2  0
  2  4  1  0
  4  5  1  0
  5  6  2  0
  5  7  1  0
  6  8  1  0
  7  9  2  0
  8 10  1  0
  9 11  1  0
  8 12  2  0
  9 12  1  0
 11 13  2  3
 13 14  1  0
 13 15  1  0
 15 16  2  0
 15 17  1  0
 16 18  1  0
 17 19  2  0
 18 20  2  0
 19 20  1  0
 18 21  1  0
 20 22  1  0
 21 23  2  0
 22 24  2  0
 23 24  1  0
M  END
