mac-x0142-mac-x0345
     RDKit          3D

 24 28  0  0  0  0  0  0  0  0999 V2000
   -8.0700   14.8530   -0.2600 C   0  0  0  0  0  0  0  0  0  0  0  0
   -6.5900   14.8820   -0.4990 C   0  0  0  0  0  0  0  0  0  0  0  0
   -6.1640   14.9960   -1.7880 N   0  0  0  0  0  0  0  0  0  0  0  0
   -5.7160   14.7970    0.5460 C   0  0  0  0  0  0  0  0  0  0  0  0
   -6.2850   14.6310    2.3270 Br  0  0  0  0  0  0  0  0  0  0  0  0
   -4.3900   14.8310    0.2680 C   0  0  0  0  0  0  0  0  0  0  0  0
   -4.8340   15.0160   -2.0660 C   0  0  0  0  0  0  0  0  0  0  0  0
   -4.5120   15.1270   -3.4150 N   0  0  0  0  0  0  0  0  0  0  0  0
   -3.4330   14.7870    1.2770 N   0  0  0  0  0  0  0  0  0  0  0  0
   -3.8880   14.9240   -1.0370 C   0  0  0  0  0  0  0  0  0  0  0  0
   -2.3200   14.8660    0.6780 C   0  0  0  0  0  0  0  0  0  0  0  0
   -2.4170   14.8820   -0.8220 C   0  0  0  0  0  0  0  0  0  0  0  0
   -1.1710   14.9460    1.3700 N   0  0  0  0  0  0  0  0  0  0  0  0
   -1.2250   14.8420   -1.5080 C   0  0  0  0  0  0  0  0  0  0  0  0
   -1.0600   14.8310   -2.9080 N   0  0  0  0  0  0  0  0  0  0  0  0
   -0.0920   14.8210   -0.7150 N   0  0  0  0  0  0  0  0  0  0  0  0
   -0.1350   14.9450    0.6400 C   0  0  0  0  0  0  0  0  0  0  0  0
   -2.0790   14.2020   -3.7890 C   0  0  0  0  0  0  0  0  0  0  0  0
    0.3240   14.9810   -3.4550 C   0  0  0  0  0  0  0  0  0  0  0  0
    0.7630   13.7020   -4.1300 C   0  0  0  0  0  0  0  0  0  0  0  0
   -1.5830   12.9740   -4.5530 C   0  0  0  0  0  0  0  0  0  0  0  0
    2.2310   13.4590   -4.4010 C   0  0  0  0  0  0  0  0  0  0  0  0
    1.5510   12.6970   -3.3060 C   0  0  0  0  0  0  0  0  0  0  0  0
   -0.2070   13.1990   -5.1650 C   0  0  0  0  0  0  0  0  0  0  0  0
  1  2  1  0
  2  3  2  0
  2  4  1  0
  4  5  1  0
  4  6  2  0
  3  7  1  0
  7  8  1  0
  6  9  1  0
  6 10  1  0
  7 10  2  0
  9 11  2  0
 10 12  1  0
 11 12  1  0
 11 13  1  0
 12 14  2  0
 14 15  1  0
 14 16  1  0
 13 17  2  0
 16 17  1  0
 15 18  1  0
 15 19  1  0
 20 19  1  0
 18 21  1  0
 20 22  1  0
 20 23  1  0
 22 23  1  0
 20 24  1  0
 21 24  1  0
M  END
