mac-x0115-mac-x0555
     RDKit          3D

 26 29  0  0  0  0  0  0  0  0999 V2000
   -1.4460   18.5360   -5.1360 C   0  0  0  0  0  0  0  0  0  0  0  0
   -0.4090   17.6100   -5.7370 C   0  0  0  0  0  0  0  0  0  0  0  0
    0.9950   18.1590   -5.5770 C   0  0  0  0  0  0  0  0  0  0  0  0
   -0.5530   16.3430   -5.0810 O   0  0  0  0  0  0  0  0  0  0  0  0
    0.6660   15.8180   -4.5370 C   0  0  0  0  0  0  0  0  0  0  0  0
    0.3410   14.5460   -3.7390 C   0  0  0  0  0  0  0  0  0  0  0  0
   -0.0350   14.8090   -2.3220 N   0  0  0  0  0  0  0  0  0  0  0  0
    0.8310   14.4840   -1.3130 C   0  0  0  0  0  0  0  0  0  0  0  0
   -1.3900   14.8250   -2.0120 C   0  0  0  0  0  0  0  0  0  0  0  0
    2.4550   14.1280   -1.5670 S   0  0  0  0  0  0  0  0  0  0  0  0
    0.3000   14.4570   -0.0240 N   0  0  0  0  0  0  0  0  0  0  0  0
   -1.9750   14.7380   -0.7290 C   0  0  0  0  0  0  0  0  0  0  0  0
   -2.3590   14.9310   -2.9540 C   0  0  0  0  0  0  0  0  0  0  0  0
   -1.0420   14.6290    0.3910 C   0  0  0  0  0  0  0  0  0  0  0  0
   -3.4260   14.7820   -0.9320 N   0  0  0  0  0  0  0  0  0  0  0  0
   -3.5380   14.9100   -2.3400 C   0  0  0  0  0  0  0  0  0  0  0  0
   -1.3150   14.6830    1.5990 O   0  0  0  0  0  0  0  0  0  0  0  0
   -4.7250   14.7270   -0.1750 C   0  0  0  0  0  0  0  0  0  0  0  0
   -4.7310   14.9990   -3.0270 C   0  0  0  0  0  0  0  0  0  0  0  0
   -5.0270   14.5900    1.2130 C   0  0  0  0  0  0  0  0  0  0  0  0
   -5.8930   14.8160   -0.9900 C   0  0  0  0  0  0  0  0  0  0  0  0
   -5.8580   14.9600   -2.4090 C   0  0  0  0  0  0  0  0  0  0  0  0
   -6.4050   14.5490    1.6400 C   0  0  0  0  0  0  0  0  0  0  0  0
   -7.1720   14.7780   -0.5980 N   0  0  0  0  0  0  0  0  0  0  0  0
   -6.8500   14.4220    2.9590 N   0  0  0  0  0  0  0  0  0  0  0  0
   -7.3930   14.6450    0.6890 C   0  0  0  0  0  0  0  0  0  0  0  0
  1  2  1  0
  2  3  1  0
  2  4  1  0
  4  5  1  0
  5  6  1  0
  6  7  1  0
  7  8  1  0
  7  9  1  0
  8 10  2  0
  8 11  1  0
  9 12  2  0
  9 13  1  0
 11 14  1  0
 12 14  1  0
 12 15  1  0
 13 16  2  0
 15 16  1  0
 14 17  2  0
 15 18  1  0
 16 19  1  0
 18 20  2  0
 18 21  1  0
 19 22  2  0
 21 22  1  0
 20 23  1  0
 21 24  2  0
 23 25  1  0
 23 26  2  0
 24 26  1  0
M  END
