mac-x0271-mac-x0439
     RDKit          3D

 27 30  0  0  0  0  0  0  0  0999 V2000
   -3.3710   14.7850   -2.7710 O   0  0  0  0  0  0  0  0  0  0  0  0
   -4.2130   14.8240   -1.7090 C   0  0  0  0  0  0  0  0  0  0  0  0
   -3.5600   14.9230   -0.4800 C   0  0  0  0  0  0  0  0  0  0  0  0
   -5.5920   14.7500   -2.0920 C   0  0  0  0  0  0  0  0  0  0  0  0
   -4.7900   14.7020   -3.4150 C   0  0  0  0  0  0  0  0  0  0  0  0
   -6.1670   14.8060   -0.7400 C   0  0  0  0  0  0  0  0  0  0  0  0
   -4.2500   14.9560    0.6750 C   0  0  0  0  0  0  0  0  0  0  0  0
   -3.4370   15.4720   -3.5950 C   0  0  0  0  0  0  0  0  0  0  0  0
   -5.5940   14.8900    0.5490 C   0  0  0  0  0  0  0  0  0  0  0  0
   -7.5990   14.7540   -0.7630 O   0  0  0  0  0  0  0  0  0  0  0  0
   -3.0180   15.8320   -5.0540 C   0  0  0  0  0  0  0  0  0  0  0  0
   -6.4360   14.8960    1.7470 C   0  0  0  0  0  0  0  0  0  0  0  0
   -8.4240   14.7750    0.3650 C   0  0  0  0  0  0  0  0  0  0  0  0
   -9.6490   14.7610    0.3080 O   0  0  0  0  0  0  0  0  0  0  0  0
   -7.7560   14.8330    1.6590 C   0  0  0  0  0  0  0  0  0  0  0  0
   -1.7790   16.7020   -5.3160 C   0  0  0  0  0  0  0  0  0  0  0  0
   -0.6070   16.5920   -4.3970 C   0  0  1  0  0  0  0  0  0  0  0  0
   -1.6140   17.6010   -6.3030 C   0  0  0  0  0  0  0  0  0  0  0  0
   -0.2880   15.4110   -3.5490 C   0  0  0  0  0  0  0  0  0  0  0  0
    0.7210   16.7820   -5.0010 C   0  0  0  0  0  0  0  0  0  0  0  0
   -0.3520   18.3270   -6.4820 C   0  0  0  0  0  0  0  0  0  0  0  0
    1.0010   15.1130   -3.7100 C   0  0  0  0  0  0  0  0  0  0  0  0
    1.6300   15.9350   -4.6180 N   0  0  0  0  0  0  0  0  0  0  0  0
    0.8150   17.9560   -5.8920 C   0  0  0  0  0  0  0  0  0  0  0  0
    1.6550   14.0150   -2.9470 C   0  0  0  0  0  0  0  0  0  0  0  0
    2.9730   14.2190   -2.7280 O   0  0  0  0  0  0  0  0  0  0  0  0
    1.1080   13.0130   -2.5190 O   0  0  0  0  0  0  0  0  0  0  0  0
  1  2  1  0
  2  3  2  0
  2  4  1  0
  4  5  1  0
  4  6  2  0
  3  7  1  0
  5  8  1  0
  6  9  1  0
  7  9  2  0
  6 10  1  0
  8 11  1  0
  9 12  1  0
 10 13  1  0
 13 14  2  0
 12 15  2  0
 13 15  1  0
 11 16  1  0
 16 17  1  0
 16 18  2  0
 17 19  1  6
 17 20  1  0
 18 21  1  0
 19 22  2  0
 20 23  2  0
 22 23  1  0
 20 24  1  0
 21 24  2  0
 22 25  1  0
 25 26  1  0
 25 27  2  0
M  END
