mac-x0555-mac-x0415
     RDKit          3D

 27 30  0  0  0  0  0  0  0  0999 V2000
   -7.4120   14.4830    2.9520 N   0  0  0  0  0  0  0  0  0  0  0  0
   -6.9990   14.6040    1.6330 C   0  0  0  0  0  0  0  0  0  0  0  0
   -7.8170   14.5130    0.5140 C   0  0  0  0  0  0  0  0  0  0  0  0
   -5.6630   14.8350    1.3950 C   0  0  0  0  0  0  0  0  0  0  0  0
   -5.1650   14.9490    0.1260 C   0  0  0  0  0  0  0  0  0  0  0  0
   -7.3760   14.6310   -0.7730 N   0  0  0  0  0  0  0  0  0  0  0  0
   -6.0530   14.8430   -0.9550 C   0  0  0  0  0  0  0  0  0  0  0  0
   -3.8040   15.1580   -0.0470 C   0  0  0  0  0  0  0  0  0  0  0  0
   -5.5150   14.9610   -2.2230 C   0  0  0  0  0  0  0  0  0  0  0  0
   -3.3000   15.2590   -1.3120 C   0  0  0  0  0  0  0  0  0  0  0  0
   -4.1430   15.1640   -2.4040 C   0  0  0  0  0  0  0  0  0  0  0  0
   -3.5070   15.2850   -3.7340 C   0  0  0  0  0  0  0  0  0  0  0  0
   -4.3050   14.7870   -4.9360 C   0  0  0  0  0  0  0  0  0  0  0  0
   -3.5900   15.3640   -6.0120 O   0  0  0  0  0  0  0  0  0  0  0  0
   -2.3220   15.6130   -5.5420 C   0  0  0  0  0  0  0  0  0  0  0  0
   -1.9790   16.9780   -5.1160 C   0  0  0  0  0  0  0  0  0  0  0  0
   -1.4260   14.5990   -5.4610 C   0  0  0  0  0  0  0  0  0  0  0  0
   -0.1270   14.9020   -4.9510 C   0  0  0  0  0  0  0  0  0  0  0  0
   -0.7200   17.3280   -4.8440 C   0  0  0  0  0  0  0  0  0  0  0  0
    0.8070   14.1080   -4.4350 C   0  0  0  0  0  0  0  0  0  0  0  0
    0.3310   16.3110   -5.0170 C   0  0  1  0  0  0  0  0  0  0  0  0
    0.8980   12.6500   -4.2420 C   0  0  0  0  0  0  0  0  0  0  0  0
    1.7910   15.0970   -3.9990 C   0  0  0  0  0  0  0  0  0  0  0  0
    1.5330   16.3490   -4.2250 N   0  0  0  0  0  0  0  0  0  0  0  0
    0.6950   12.2560   -2.8040 C   0  0  0  0  0  0  0  0  0  0  0  0
    0.0310   11.0920   -2.6500 O   0  0  0  0  0  0  0  0  0  0  0  0
    1.0870   12.9060   -1.8510 O   0  0  0  0  0  0  0  0  0  0  0  0
  1  2  1  0
  2  3  2  0
  2  4  1  0
  4  5  2  0
  3  6  1  0
  5  7  1  0
  6  7  2  0
  5  8  1  0
  7  9  1  0
  8 10  2  0
  9 11  2  0
 10 11  1  0
 11 12  1  0
 12 13  1  0
 13 14  1  0
 14 15  1  0
 15 16  1  0
 15 17  2  0
 17 18  1  0
 16 19  2  0
 18 20  2  0
 18 21  1  0
 21 19  1  1
 20 22  1  0
 20 23  1  0
 21 24  1  0
 23 24  2  0
 22 25  1  0
 25 26  1  0
 25 27  2  0
M  END
