mac-x0398-mac-x0115
     RDKit          3D

 27 29  0  0  0  0  0  0  0  0999 V2000
   -6.6980   14.7900    2.0240 N   0  0  0  0  0  0  0  0  0  0  0  0
   -6.0220   14.9200    0.8050 C   0  0  0  0  0  0  0  0  0  0  0  0
   -4.6640   15.1190    0.8510 C   0  0  0  0  0  0  0  0  0  0  0  0
   -6.6620   14.8580   -0.4570 C   0  0  0  0  0  0  0  0  0  0  0  0
   -5.9290   14.9730   -1.6650 C   0  0  0  0  0  0  0  0  0  0  0  0
   -3.9430   15.2330   -0.3230 C   0  0  0  0  0  0  0  0  0  0  0  0
   -6.6270   14.8830   -2.8460 O   0  0  0  0  0  0  0  0  0  0  0  0
   -4.5500   15.1480   -1.5910 C   0  0  0  0  0  0  0  0  0  0  0  0
   -3.5750   15.2310   -2.7070 C   0  0  0  0  0  0  0  0  0  0  0  0
   -3.7260   15.5060   -3.8920 O   0  0  0  0  0  0  0  0  0  0  0  0
   -2.4290   14.8590   -1.9410 C   0  0  0  0  0  0  0  0  0  0  0  0
   -1.1010   14.6490   -1.8330 C   0  0  0  0  0  0  0  0  0  0  0  0
   -2.9130   14.5480   -0.6040 C   0  0  0  0  0  0  0  0  0  0  0  0
    0.0790   14.7000   -2.5920 N   0  0  0  0  0  0  0  0  0  0  0  0
   -0.8580   14.2530   -0.4110 C   0  0  2  0  0  0  0  0  0  0  0  0
   -2.1150   14.2110    0.3130 N   0  0  0  0  0  0  0  0  0  0  0  0
    0.0880   14.4580   -4.0510 C   0  0  0  0  0  0  0  0  0  0  0  0
    1.2860   14.5050   -1.8470 C   0  0  0  0  0  0  0  0  0  0  0  0
    0.0990   15.1660    0.1330 C   0  0  0  0  0  0  0  0  0  0  0  0
    0.5200   15.6990   -4.8520 C   0  0  0  0  0  0  0  0  0  0  0  0
   -0.0880   15.9740    0.9940 O   0  0  0  0  0  0  0  0  0  0  0  0
    2.7300   13.8250   -2.3470 S   0  0  0  0  0  0  0  0  0  0  0  0
    1.2550   14.9240   -0.5290 N   0  0  0  0  0  0  0  0  0  0  0  0
   -0.6490   16.4090   -5.2590 O   0  0  0  0  0  0  0  0  0  0  0  0
   -0.4130   17.7000   -5.8240 C   0  0  0  0  0  0  0  0  0  0  0  0
   -1.4170   18.6380   -5.1820 C   0  0  0  0  0  0  0  0  0  0  0  0
    1.0130   18.1560   -5.5780 C   0  0  0  0  0  0  0  0  0  0  0  0
  1  2  1  0
  2  3  2  0
  2  4  1  0
  4  5  2  0
  3  6  1  0
  5  7  1  0
  5  8  1  0
  6  8  2  0
  8  9  1  0
  9 10  2  0
  9 11  1  0
 11 12  2  0
 11 13  1  0
 12 14  1  0
 12 15  1  0
 13 16  2  0
 15 16  1  1
 14 17  1  0
 14 18  1  0
 15 19  1  0
 17 20  1  0
 19 21  2  0
 18 22  2  0
 18 23  1  0
 19 23  1  0
 20 24  1  0
 24 25  1  0
 25 26  1  0
 25 27  1  0
M  END
