mac-x0587-diamond-x0962_3_A
     RDKit          3D

 24 25  0  0  0  0  0  0  0  0999 V2000
    0.0900   15.9030   -4.5330 C   0  0  0  0  0  0  0  0  0  0  0  0
   -0.5610   14.7940   -3.7060 C   0  0  2  0  0  0  0  0  0  0  0  0
   -0.3480   13.1520   -4.4250 S   0  0  2  0  0  0  0  0  0  0  0  0
   -2.0640   15.0330   -3.4520 C   0  0  0  0  0  0  0  0  0  0  0  0
    0.9300   12.2800   -3.6340 C   0  0  0  0  0  0  0  0  0  0  0  0
   -2.8280   15.3760   -4.3600 O   0  0  0  0  0  0  0  0  0  0  0  0
    0.3010   13.1990   -6.0490 C   0  0  0  0  0  0  0  0  0  0  0  0
   -2.5310   14.8400   -2.1520 N   0  0  0  0  0  0  0  0  0  0  0  0
    0.6150   11.5310   -2.3960 C   0  0  0  0  0  0  0  0  0  0  0  0
   -0.2600   12.0540   -6.8850 C   0  0  0  0  0  0  0  0  0  0  0  0
   -3.9260   15.1050   -1.8350 C   0  0  0  0  0  0  0  0  0  0  0  0
   -1.8070   14.7660   -0.9430 C   0  0  0  0  0  0  0  0  0  0  0  0
    0.4390   10.3200   -2.3980 O   0  0  0  0  0  0  0  0  0  0  0  0
    0.5440   12.2530   -1.2750 O   0  0  0  0  0  0  0  0  0  0  0  0
   -0.5970   14.7790   -0.7770 O   0  0  0  0  0  0  0  0  0  0  0  0
    0.6510   10.9950   -7.5310 C   0  0  2  0  0  0  0  0  0  0  0  0
   -3.9830   15.2040   -0.3210 C   0  0  0  0  0  0  0  0  0  0  0  0
   -2.7120   14.6890    0.1010 N   0  0  0  0  0  0  0  0  0  0  0  0
    0.9770   11.2780   -8.9190 N   0  0  0  0  0  0  0  0  0  0  0  0
   -0.0790    9.7340   -7.5660 C   0  0  0  0  0  0  0  0  0  0  0  0
    0.3030    8.6600   -8.3290 N   0  0  0  0  0  0  0  0  0  0  0  0
   -1.2160    9.3240   -6.9290 C   0  0  0  0  0  0  0  0  0  0  0  0
   -0.6090    7.6720   -8.1200 C   0  0  0  0  0  0  0  0  0  0  0  0
   -1.5420    8.0480   -7.2750 N   0  0  0  0  0  0  0  0  0  0  0  0
  2  1  1  6
  2  3  1  0
  2  4  1  0
  3  5  1  1
  4  6  2  0
  3  7  1  0
  4  8  1  0
  5  9  1  0
  7 10  1  0
  8 11  1  0
  8 12  1  0
  9 13  2  0
  9 14  1  0
 12 15  2  0
 10 16  1  0
 11 17  1  0
 12 18  1  0
 17 18  1  0
 16 19  1  6
 16 20  1  0
 20 21  1  0
 20 22  2  0
 21 23  1  0
 22 24  1  0
 23 24  2  0
M  END
