mac-x0132-mac-x0131
     RDKit          3D

 28 32  0  0  0  0  0  0  0  0999 V2000
   -4.1500   15.0330    1.6070 N   0  0  0  0  0  0  0  0  0  0  0  0
   -5.3830   14.6370    1.0160 C   0  0  0  0  0  0  0  0  0  0  0  0
   -6.5490   14.8110    1.6700 N   0  0  0  0  0  0  0  0  0  0  0  0
   -2.9030   14.8300    0.9900 C   0  0  0  0  0  0  0  0  0  0  0  0
   -5.3520   14.0640   -0.2680 C   0  0  0  0  0  0  0  0  0  0  0  0
   -2.7510   14.9390   -0.4190 C   0  0  0  0  0  0  0  0  0  0  0  0
   -1.8020   14.5070    1.7250 N   0  0  0  0  0  0  0  0  0  0  0  0
   -6.5950   13.7290   -0.8240 C   0  0  0  0  0  0  0  0  0  0  0  0
   -7.6680   14.4490    1.0390 C   0  0  0  0  0  0  0  0  0  0  0  0
   -4.1750   13.8080   -1.0230 C   0  0  0  0  0  0  0  0  0  0  0  0
   -3.5900   15.2670   -1.5570 C   0  0  0  0  0  0  0  0  0  0  0  0
   -1.4840   14.6720   -0.9250 C   0  0  0  0  0  0  0  0  0  0  0  0
   -0.6360   14.2890    1.0970 C   0  0  0  0  0  0  0  0  0  0  0  0
   -5.0360   15.6450   -1.5350 C   0  0  0  0  0  0  0  0  0  0  0  0
   -7.7500   13.9210   -0.1840 N   0  0  0  0  0  0  0  0  0  0  0  0
   -6.6250   13.1760   -2.0960 C   0  0  0  0  0  0  0  0  0  0  0  0
   -4.2310   13.2480   -2.2930 C   0  0  0  0  0  0  0  0  0  0  0  0
   -2.8030   15.1630   -2.7010 C   0  0  0  0  0  0  0  0  0  0  0  0
   -1.5330   14.7960   -2.2940 N   0  0  0  0  0  0  0  0  0  0  0  0
   -0.3870   14.3410   -0.2210 N   0  0  0  0  0  0  0  0  0  0  0  0
   -3.1490   15.3800   -4.1350 C   0  0  0  0  0  0  0  0  0  0  0  0
   -0.3830   14.5570   -3.1490 C   0  0  0  0  0  0  0  0  0  0  0  0
   -5.4630   12.9350   -2.8350 C   0  0  0  0  0  0  0  0  0  0  0  0
   -0.2660   13.0810   -3.2490 C   0  0  0  0  0  0  0  0  0  0  0  0
    0.5380   12.1460   -2.6340 C   0  0  0  0  0  0  0  0  0  0  0  0
   -1.1220   12.4620   -4.1140 O   0  0  0  0  0  0  0  0  0  0  0  0
   -0.8650   11.1330   -4.0430 C   0  0  0  0  0  0  0  0  0  0  0  0
    0.1440   10.8870   -3.1470 C   0  0  0  0  0  0  0  0  0  0  0  0
  1  2  1  0
  2  3  2  0
  1  4  1  0
  2  5  1  0
  4  6  1  0
  4  7  2  0
  5  8  2  0
  3  9  1  0
  5 10  1  0
  6 11  1  0
  6 12  2  0
  7 13  1  0
 11 14  1  0
  8 15  1  0
  9 15  2  0
  8 16  1  0
 10 17  2  0
 11 18  2  0
 12 19  1  0
 18 19  1  0
 12 20  1  0
 13 20  2  0
 18 21  1  0
 19 22  1  0
 16 23  2  0
 17 23  1  0
 22 24  1  0
 24 25  2  0
 24 26  1  0
 26 27  1  0
 25 28  1  0
 27 28  2  0
M  END
