mac-x0472-mac-x0373
     RDKit          3D

 30 33  0  0  0  0  0  0  0  0999 V2000
   -5.7630   15.4820   -2.2890 O   0  0  0  0  0  0  0  0  0  0  0  0
   -4.7080   14.6320   -2.7680 S   0  0  2  0  0  0  0  0  0  0  0  0
   -4.1610   14.4580   -4.2160 N   0  0  0  0  0  0  0  0  0  0  0  0
   -4.9790   12.9520   -2.2760 C   0  0  0  0  0  0  0  0  0  0  0  0
   -3.2130   15.1980   -2.1840 C   0  0  0  0  0  0  0  0  0  0  0  0
   -3.9080   12.0450   -2.3570 C   0  0  0  0  0  0  0  0  0  0  0  0
   -6.2270   12.5440   -1.8450 C   0  0  0  0  0  0  0  0  0  0  0  0
   -2.6210   15.8120   -3.2230 C   0  0  0  0  0  0  0  0  0  0  0  0
   -2.6190   15.0820   -0.9560 C   0  0  0  0  0  0  0  0  0  0  0  0
   -3.2130   13.3310   -4.4560 C   0  0  0  0  0  0  0  0  0  0  0  0
   -4.1190   10.7170   -2.0220 C   0  0  0  0  0  0  0  0  0  0  0  0
   -6.4300   11.2170   -1.5060 C   0  0  0  0  0  0  0  0  0  0  0  0
   -3.1610   14.5620    0.2200 C   0  0  0  0  0  0  0  0  0  0  0  0
   -1.3930   16.2920   -3.0740 C   0  0  0  0  0  0  0  0  0  0  0  0
   -1.3390   15.5200   -0.8520 C   0  0  0  0  0  0  0  0  0  0  0  0
   -1.9200   13.4890   -4.9830 C   0  0  0  0  0  0  0  0  0  0  0  0
   -3.6560   12.0510   -4.1400 C   0  0  0  0  0  0  0  0  0  0  0  0
   -5.3860   10.3070   -1.6010 C   0  0  0  0  0  0  0  0  0  0  0  0
   -2.5070   13.9900    1.1690 N   0  0  0  0  0  0  0  0  0  0  0  0
   -4.8450   14.7750    0.4460 S   0  0  0  0  0  0  0  0  0  0  0  0
   -0.7510   16.1260   -1.8970 C   0  0  0  0  0  0  0  0  0  0  0  0
   -1.1070   12.3620   -5.1830 C   0  0  0  0  0  0  0  0  0  0  0  0
   -2.8490   10.9350   -4.3340 C   0  0  0  0  0  0  0  0  0  0  0  0
   -0.4250   15.3810    0.2950 C   0  0  0  0  0  0  0  0  0  0  0  0
   -4.5940   14.0270    1.9420 C   0  0  0  0  0  0  0  0  0  0  0  0
   -3.3550   13.6780    2.1810 N   0  0  0  0  0  0  0  0  0  0  0  0
   -1.5750   11.0880   -4.8570 C   0  0  0  0  0  0  0  0  0  0  0  0
    0.5750   14.5200   -0.4960 C   0  0  0  0  0  0  0  0  0  0  0  0
    0.1740   13.2210   -0.6760 O   0  0  0  0  0  0  0  0  0  0  0  0
    1.6070   14.9010   -1.0120 O   0  0  0  0  0  0  0  0  0  0  0  0
  1  2  2  0
  2  3  2  0
  2  4  1  1
  2  5  1  0
  4  6  2  0
  4  7  1  0
  5  8  2  0
  5  9  1  0
  3 10  1  0
  6 11  1  0
  7 12  2  0
  9 13  1  0
  8 14  1  0
  9 15  2  0
 10 16  2  0
 10 17  1  0
 11 18  2  0
 12 18  1  0
 13 19  2  0
 13 20  1  0
 14 21  2  0
 15 21  1  0
 16 22  1  0
 17 23  2  0
 15 24  1  0
 20 25  1  0
 19 26  1  0
 25 26  2  0
 22 27  2  0
 23 27  1  0
 24 28  1  0
 28 29  1  0
 28 30  2  0
M  END
