mac-x0303-mac-x0206
     RDKit          3D

 17 18  0  0  0  0  0  0  0  0999 V2000
   -7.5880   12.7210    2.7620 N   0  0  0  0  0  0  0  0  0  0  0  0
   -8.1540   14.1040    1.9710 S   0  0  0  0  0  0  0  0  0  0  0  0
   -8.3140   15.1170    2.9980 O   0  0  0  0  0  0  0  0  0  0  0  0
   -9.3140   13.7150    1.1860 O   0  0  0  0  0  0  0  0  0  0  0  0
   -6.7110   14.6170    0.8550 C   0  0  2  0  0  0  0  0  0  0  0  0
   -7.0030   15.2970   -0.4580 N   0  0  0  0  0  0  0  0  0  0  0  0
   -5.3450   14.1250    0.6370 N   0  0  0  0  0  0  0  0  0  0  0  0
   -4.8840   13.5540   -0.5160 C   0  0  0  0  0  0  0  0  0  0  0  0
   -7.2720   14.2600   -1.4610 O   0  0  0  0  0  0  0  0  0  0  0  0
   -5.6390   15.8680   -0.7070 C   0  0  1  0  0  0  0  0  0  0  0  0
   -4.7510   15.4030    0.4920 C   0  0  2  0  0  0  0  0  0  0  0  0
   -3.5880   13.1780   -0.4920 N   0  0  0  0  0  0  0  0  0  0  0  0
   -5.5180   13.4200   -1.5520 O   0  0  0  0  0  0  0  0  0  0  0  0
   -5.1200   15.5100   -2.0590 C   0  0  0  0  0  0  0  0  0  0  0  0
   -3.3080   15.2620    0.1410 C   0  0  0  0  0  0  0  0  0  0  0  0
   -3.8400   15.1860   -2.2440 C   0  0  0  0  0  0  0  0  0  0  0  0
   -2.9060   15.1580   -1.1390 C   0  0  0  0  0  0  0  0  0  0  0  0
  2  1  1  0
  2  3  2  0
  2  4  2  0
  5  2  1  6
  5  6  1  0
  5  7  1  0
  7  8  1  0
  6  9  1  0
  6 10  1  0
  7 11  1  0
 10 11  1  0
  8 12  1  0
  8 13  2  0
 10 14  1  6
 11 15  1  6
 14 16  2  0
 15 17  2  0
 16 17  1  0
M  END
