mac-x0255-mac-x0472
     RDKit          3D

 28 31  0  0  0  0  0  0  0  0999 V2000
    0.5790   12.5690   -1.2350 O   0  0  0  0  0  0  0  0  0  0  0  0
    0.8580   12.1730   -2.4950 C   0  0  0  0  0  0  0  0  0  0  0  0
    0.4850   11.0860   -2.9180 O   0  0  0  0  0  0  0  0  0  0  0  0
    1.6350   13.1520   -3.3490 C   0  0  0  0  0  0  0  0  0  0  0  0
    0.7490   14.1700   -3.9720 C   0  0  0  0  0  0  0  0  0  0  0  0
    1.2480   15.2170   -4.5630 C   0  0  0  0  0  0  0  0  0  0  0  0
   -1.0520   13.8550   -3.8430 S   0  0  0  0  0  0  0  0  0  0  0  0
   -2.5770   14.6190   -4.0930 N   0  0  0  0  0  0  0  0  0  0  0  0
    0.3110   16.0890   -5.1660 C   0  0  1  0  0  0  0  0  0  0  0  0
   -1.0000   15.4740   -4.7650 C   0  0  0  0  0  0  0  0  0  0  0  0
   -3.4540   14.5420   -2.7830 S   0  0  2  0  0  0  0  0  0  0  0  0
    0.3680   17.5480   -4.9270 C   0  0  0  0  0  0  0  0  0  0  0  0
   -2.1770   16.2490   -5.2210 C   0  0  0  0  0  0  0  0  0  0  0  0
   -4.4810   15.5130   -2.4780 O   0  0  0  0  0  0  0  0  0  0  0  0
   -2.3630   14.8490   -1.5540 N   0  0  0  0  0  0  0  0  0  0  0  0
   -0.7560   18.2380   -5.0470 C   0  0  0  0  0  0  0  0  0  0  0  0
   -1.9870   17.5730   -5.3640 C   0  0  0  0  0  0  0  0  0  0  0  0
   -4.1420   12.9240   -2.4540 C   0  0  0  0  0  0  0  0  0  0  0  0
   -2.7150   14.9000   -0.2530 C   0  0  0  0  0  0  0  0  0  0  0  0
   -3.4330   11.7720   -2.8170 C   0  0  0  0  0  0  0  0  0  0  0  0
   -5.3880   12.7980   -1.8250 C   0  0  0  0  0  0  0  0  0  0  0  0
   -2.0200   14.5190    0.7960 N   0  0  0  0  0  0  0  0  0  0  0  0
   -4.2680   15.5420    0.1720 S   0  0  0  0  0  0  0  0  0  0  0  0
   -3.9680   10.5070   -2.5570 C   0  0  0  0  0  0  0  0  0  0  0  0
   -5.9180   11.5310   -1.5680 C   0  0  0  0  0  0  0  0  0  0  0  0
   -3.8690   15.2420    1.8000 C   0  0  0  0  0  0  0  0  0  0  0  0
   -2.6830   14.7130    1.9810 N   0  0  0  0  0  0  0  0  0  0  0  0
   -5.2120   10.3920   -1.9340 C   0  0  0  0  0  0  0  0  0  0  0  0
  1  2  1  0
  2  3  2  0
  2  4  1  0
  4  5  1  0
  5  6  2  0
  5  7  1  0
  7  8  1  0
  9  6  1  1
  7 10  2  0
  9 10  1  0
  8 11  2  0
  9 12  1  0
 10 13  1  0
 11 14  2  0
 11 15  1  1
 12 16  2  0
 13 17  2  0
 16 17  1  0
 11 18  1  0
 15 19  1  0
 18 20  2  0
 18 21  1  0
 19 22  2  0
 19 23  1  0
 20 24  1  0
 21 25  2  0
 23 26  1  0
 22 27  1  0
 26 27  2  0
 24 28  2  0
 25 28  1  0
M  END
