mac-x0124-mac-x0373
     RDKit          3D

 20 22  0  0  0  0  0  0  0  0999 V2000
   -0.2170   14.5090   -2.7700 C   0  0  0  0  0  0  0  0  0  0  0  0
    0.4150   13.3250   -2.2740 O   0  0  0  0  0  0  0  0  0  0  0  0
    0.7360   15.5490   -2.6030 O   0  0  0  0  0  0  0  0  0  0  0  0
   -0.6500   14.3550   -4.1990 C   0  0  0  0  0  0  0  0  0  0  0  0
   -1.4010   14.7580   -2.0060 N   0  0  0  0  0  0  0  0  0  0  0  0
   -2.6730   15.0420   -2.4650 C   0  0  0  0  0  0  0  0  0  0  0  0
   -1.3740   14.7310   -0.6740 C   0  0  0  0  0  0  0  0  0  0  0  0
   -1.3180   13.0360   -4.4290 C   0  0  0  0  0  0  0  0  0  0  0  0
   -3.4720   15.2060   -1.3590 C   0  0  0  0  0  0  0  0  0  0  0  0
   -2.6450   15.0080   -0.2200 C   0  0  0  0  0  0  0  0  0  0  0  0
   -0.2640   14.4770    0.0220 N   0  0  0  0  0  0  0  0  0  0  0  0
   -0.9550   12.3310   -5.5610 C   0  0  0  0  0  0  0  0  0  0  0  0
   -2.2810   12.4980   -3.5470 C   0  0  0  0  0  0  0  0  0  0  0  0
   -2.7890   15.0300    1.1530 C   0  0  0  0  0  0  0  0  0  0  0  0
   -0.5290   14.5110    1.3280 C   0  0  0  0  0  0  0  0  0  0  0  0
   -1.5300   11.1000   -5.8360 C   0  0  0  0  0  0  0  0  0  0  0  0
   -2.8610   11.2590   -3.8260 C   0  0  0  0  0  0  0  0  0  0  0  0
   -3.9920   15.3180    1.7610 N   0  0  0  0  0  0  0  0  0  0  0  0
   -1.7130   14.7640    1.9170 N   0  0  0  0  0  0  0  0  0  0  0  0
   -2.4820   10.5650   -4.9710 C   0  0  0  0  0  0  0  0  0  0  0  0
  1  2  1  0
  1  3  1  0
  1  4  1  0
  1  5  1  0
  5  6  1  0
  5  7  1  0
  4  8  1  0
  6  9  2  0
  7 10  2  0
  9 10  1  0
  7 11  1  0
  8 12  2  0
  8 13  1  0
 10 14  1  0
 11 15  2  0
 12 16  1  0
 13 17  2  0
 14 18  1  0
 14 19  2  0
 15 19  1  0
 16 20  2  0
 17 20  1  0
M  END
