mac-x0224-diamond-x0421_0_A
     RDKit          3D

 22 24  0  0  0  0  0  0  0  0999 V2000
   -5.2080   15.1710    1.9270 C   0  0  0  0  0  0  0  0  0  0  0  0
   -3.9760   16.2010    1.0910 S   0  0  0  0  0  0  0  0  0  0  0  0
   -3.9450   15.6240   -0.5970 C   0  0  0  0  0  0  0  0  0  0  0  0
   -2.7730   15.1250   -1.1170 C   0  0  0  0  0  0  0  0  0  0  0  0
   -5.0620   15.6660   -1.4210 C   0  0  0  0  0  0  0  0  0  0  0  0
   -2.6480   14.6650   -2.4260 C   0  0  0  0  0  0  0  0  0  0  0  0
   -4.9720   15.2110   -2.7460 C   0  0  0  0  0  0  0  0  0  0  0  0
   -1.2760   14.1450   -2.7680 C   0  0  0  0  0  0  0  0  0  0  0  0
   -3.7610   14.7170   -3.2460 C   0  0  0  0  0  0  0  0  0  0  0  0
   -3.6670   14.2750   -4.5400 O   0  0  0  0  0  0  0  0  0  0  0  0
   -0.3340   15.2150   -2.6950 O   0  0  0  0  0  0  0  0  0  0  0  0
   -1.1030   13.5150   -4.0370 O   0  0  0  0  0  0  0  0  0  0  0  0
   -1.0960   13.1290   -1.5900 C   0  0  1  0  0  0  0  0  0  0  0  0
    0.2740   13.1440   -1.0620 N   0  0  0  0  0  0  0  0  0  0  0  0
   -2.0830   13.4060   -0.4430 C   0  0  0  0  0  0  0  0  0  0  0  0
   -1.9100   14.1210    0.7370 C   0  0  0  0  0  0  0  0  0  0  0  0
   -3.3850   12.9010   -0.4830 N   0  0  0  0  0  0  0  0  0  0  0  0
   -3.1070   14.0340    1.3950 N   0  0  0  0  0  0  0  0  0  0  0  0
   -3.9650   13.2880    0.6350 C   0  0  0  0  0  0  0  0  0  0  0  0
   -5.4290   12.9410    1.0500 C   0  0  0  0  0  0  0  0  0  0  0  0
   -6.5930   13.6520    0.4020 C   0  0  0  0  0  0  0  0  0  0  0  0
   -6.3170   12.2130    0.0790 C   0  0  0  0  0  0  0  0  0  0  0  0
  1  2  1  0
  2  3  1  0
  3  4  2  0
  3  5  1  0
  4  6  1  0
  5  7  2  0
  6  8  1  0
  6  9  2  0
  7  9  1  0
  9 10  1  0
  8 11  1  0
  8 12  1  0
  8 13  1  0
 13 14  1  1
 13 15  1  0
 15 16  2  0
 15 17  1  0
 16 18  1  0
 17 19  2  0
 18 19  1  0
 19 20  1  0
 20 21  1  0
 20 22  1  0
 21 22  1  0
M  END
