mac-x0348-diamond-x0727_0_A
     RDKit          3D

 24 26  0  0  0  0  0  0  0  0999 V2000
    0.3750   18.6600   -6.1240 C   0  0  0  0  0  0  0  0  0  0  0  0
   -0.0460   17.4700   -5.4340 N   0  0  0  0  0  0  0  0  0  0  0  0
    0.7580   16.7570   -4.6040 C   0  0  0  0  0  0  0  0  0  0  0  0
   -1.2830   16.8800   -5.4990 C   0  0  0  0  0  0  0  0  0  0  0  0
    0.0770   15.6820   -4.1170 C   0  0  0  0  0  0  0  0  0  0  0  0
   -1.2280   15.7460   -4.6790 C   0  0  0  0  0  0  0  0  0  0  0  0
   -2.4460   17.2240   -6.1940 C   0  0  0  0  0  0  0  0  0  0  0  0
    0.6460   14.6660   -3.1640 C   0  0  0  0  0  0  0  0  0  0  0  0
   -2.3640   14.9330   -4.5550 C   0  0  0  0  0  0  0  0  0  0  0  0
   -3.5500   16.3770   -6.0350 C   0  0  0  0  0  0  0  0  0  0  0  0
    0.8870   13.2360   -3.7010 C   0  0  1  0  0  0  0  0  0  0  0  0
   -3.5170   15.2610   -5.2400 C   0  0  0  0  0  0  0  0  0  0  0  0
    0.6060   12.2700   -2.5690 C   0  0  0  0  0  0  0  0  0  0  0  0
    0.0730   12.8610   -4.9540 C   0  0  0  0  0  0  0  0  0  0  0  0
    0.5980   12.5760   -1.3820 O   0  0  0  0  0  0  0  0  0  0  0  0
    0.3580   11.0040   -2.9240 O   0  0  0  0  0  0  0  0  0  0  0  0
    0.1930   11.4780   -5.4160 N   0  0  0  0  0  0  0  0  0  0  0  0
    0.7330   11.1750   -6.6470 C   0  0  0  0  0  0  0  0  0  0  0  0
    1.6750   11.7880   -7.0910 O   0  0  0  0  0  0  0  0  0  0  0  0
    0.1270   10.0080   -7.4300 C   0  0  0  0  0  0  0  0  0  0  0  0
   -1.1550   10.3780   -8.1840 C   0  0  0  0  0  0  0  0  0  0  0  0
   -0.2180    8.7920   -6.5540 C   0  0  0  0  0  0  0  0  0  0  0  0
   -2.0660    9.1650   -8.0430 C   0  0  0  0  0  0  0  0  0  0  0  0
   -1.7180    8.5900   -6.6810 C   0  0  0  0  0  0  0  0  0  0  0  0
  1  2  1  0
  2  3  1  0
  2  4  1  0
  3  5  2  0
  4  6  2  0
  5  6  1  0
  4  7  1  0
  5  8  1  0
  6  9  1  0
  7 10  2  0
 11  8  1  1
  9 12  2  0
 10 12  1  0
 11 13  1  0
 11 14  1  0
 13 15  2  0
 13 16  1  0
 14 17  1  0
 17 18  1  0
 18 19  2  0
 18 20  1  0
 20 21  1  0
 20 22  1  0
 21 23  1  0
 22 24  1  0
 23 24  1  0
M  END
