mac-x1493-mac-x0373
     RDKit          3D

 21 23  0  0  0  0  0  0  0  0999 V2000
   -0.7020   14.5490   -1.7940 C   0  0  0  0  0  0  0  0  0  0  0  0
   -2.0710   14.4910   -2.5830 C   0  0  2  0  0  0  0  0  0  0  0  0
   -2.0990   15.5670   -3.5420 O   0  0  0  0  0  0  0  0  0  0  0  0
   -0.4640   13.4520   -1.0140 O   0  0  0  0  0  0  0  0  0  0  0  0
    0.1610   15.4120   -1.8220 O   0  0  0  0  0  0  0  0  0  0  0  0
   -3.4000   14.5780   -1.7830 C   0  0  0  0  0  0  0  0  0  0  0  0
   -2.0570   13.2000   -3.4190 C   0  0  0  0  0  0  0  0  0  0  0  0
   -3.4770   14.6850   -0.3780 C   0  0  0  0  0  0  0  0  0  0  0  0
   -4.6350   14.5370   -2.4370 C   0  0  0  0  0  0  0  0  0  0  0  0
   -1.2780   13.0790   -4.5980 C   0  0  0  0  0  0  0  0  0  0  0  0
   -2.8270   12.0890   -3.0340 C   0  0  0  0  0  0  0  0  0  0  0  0
   -4.7270   14.7200    0.2790 C   0  0  0  0  0  0  0  0  0  0  0  0
   -5.8500   14.5730   -1.8350 N   0  0  0  0  0  0  0  0  0  0  0  0
   -1.2830   11.8970   -5.3480 C   0  0  0  0  0  0  0  0  0  0  0  0
   -2.8280   10.9140   -3.7830 C   0  0  0  0  0  0  0  0  0  0  0  0
   -5.8990   14.6530   -0.5020 C   0  0  0  0  0  0  0  0  0  0  0  0
   -4.8380   14.8090    1.6720 C   0  0  0  0  0  0  0  0  0  0  0  0
   -2.0590   10.8160   -4.9380 C   0  0  0  0  0  0  0  0  0  0  0  0
   -7.1360   14.6630    0.1310 C   0  0  0  0  0  0  0  0  0  0  0  0
   -6.0900   14.8180    2.2890 C   0  0  0  0  0  0  0  0  0  0  0  0
   -7.2440   14.7410    1.5210 C   0  0  0  0  0  0  0  0  0  0  0  0
  1  2  1  0
  2  3  1  6
  1  4  1  0
  1  5  2  0
  2  6  1  0
  2  7  1  0
  6  8  2  0
  6  9  1  0
  7 10  2  0
  7 11  1  0
  8 12  1  0
  9 13  2  0
 10 14  1  0
 11 15  2  0
 12 16  2  0
 13 16  1  0
 12 17  1  0
 14 18  2  0
 15 18  1  0
 16 19  1  0
 17 20  2  0
 19 21  2  0
 20 21  1  0
M  END
