mac-x1493-mac-x0347
     RDKit          3D

 21 23  0  0  0  0  0  0  0  0999 V2000
   -2.6510   15.5070   -4.4770 O   0  0  0  0  0  0  0  0  0  0  0  0
   -3.8300   14.8710   -4.6070 C   0  0  0  0  0  0  0  0  0  0  0  0
   -4.2000   14.4300   -5.6730 O   0  0  0  0  0  0  0  0  0  0  0  0
   -4.5520   14.7830   -3.3360 C   0  0  0  0  0  0  0  0  0  0  0  0
   -3.7660   14.6900   -2.2260 C   0  0  0  0  0  0  0  0  0  0  0  0
   -5.9280   14.7870   -3.1550 C   0  0  0  0  0  0  0  0  0  0  0  0
   -4.3090   14.6010   -0.9710 C   0  0  0  0  0  0  0  0  0  0  0  0
   -6.5210   14.7060   -1.9360 N   0  0  0  0  0  0  0  0  0  0  0  0
   -5.6970   14.6160   -0.8650 C   0  0  0  0  0  0  0  0  0  0  0  0
   -3.3680   14.4930    0.1990 C   0  0  1  0  0  0  0  0  0  0  0  0
   -6.3440   14.5340    0.4290 C   0  0  0  0  0  0  0  0  0  0  0  0
   -4.1260   14.0510    1.5050 C   0  0  0  0  0  0  0  0  0  0  0  0
   -2.1610   13.5720   -0.2160 C   0  0  0  0  0  0  0  0  0  0  0  0
   -2.7530   15.8820    0.3350 C   0  0  0  0  0  0  0  0  0  0  0  0
   -5.6260   14.2770    1.5220 C   0  0  0  0  0  0  0  0  0  0  0  0
   -1.3480   14.0920   -1.4430 C   0  0  2  0  0  0  0  0  0  0  0  0
   -2.2150   16.2810   -0.9570 N   0  0  0  0  0  0  0  0  0  0  0  0
   -0.0930   13.3230   -1.8060 C   0  0  0  0  0  0  0  0  0  0  0  0
   -1.0130   15.5640   -1.3120 C   0  0  0  0  0  0  0  0  0  0  0  0
    0.5650   13.7670   -2.9040 O   0  0  0  0  0  0  0  0  0  0  0  0
    0.3270   12.3660   -1.1810 O   0  0  0  0  0  0  0  0  0  0  0  0
  1  2  1  0
  2  3  2  0
  2  4  1  0
  4  5  2  0
  4  6  1  0
  5  7  1  0
  6  8  2  0
  7  9  2  0
  8  9  1  0
  7 10  1  0
  9 11  1  0
 10 12  1  1
 10 13  1  0
 10 14  1  0
 11 15  2  0
 12 15  1  0
 13 16  1  0
 14 17  1  0
 16 18  1  1
 16 19  1  0
 17 19  1  0
 18 20  1  0
 18 21  2  0
M  END
