mac-x0231-mac-x0116
     RDKit          3D

 32 36  0  0  0  0  0  0  0  0999 V2000
    0.7690   11.1670   -2.3320 O   0  0  0  0  0  0  0  0  0  0  0  0
    0.9550   12.4300   -2.7640 C   0  0  0  0  0  0  0  0  0  0  0  0
    0.9030   13.5770   -2.1510 N   0  0  0  0  0  0  0  0  0  0  0  0
    1.2930   12.5300   -4.2140 C   0  0  0  0  0  0  0  0  0  0  0  0
    0.6760   13.9760   -0.7610 C   0  0  0  0  0  0  0  0  0  0  0  0
    0.9780   13.9530   -4.5470 C   0  0  0  0  0  0  0  0  0  0  0  0
   -0.4080   14.2930   -4.8950 C   0  0  0  0  0  0  0  0  0  0  0  0
    1.9300   14.8270   -4.4450 N   0  0  0  0  0  0  0  0  0  0  0  0
   -0.5830   14.2600   -0.1210 N   0  0  0  0  0  0  0  0  0  0  0  0
   -0.7290   15.6430   -4.9790 C   0  0  0  0  0  0  0  0  0  0  0  0
    1.6060   16.1220   -4.6900 N   0  0  0  0  0  0  0  0  0  0  0  0
   -1.3920   13.3260   -5.1280 C   0  0  0  0  0  0  0  0  0  0  0  0
   -1.8420   14.5540   -0.5810 C   0  0  0  0  0  0  0  0  0  0  0  0
   -0.6280   14.2580    1.2430 C   0  0  0  0  0  0  0  0  0  0  0  0
    0.3340   16.6340   -4.7370 C   0  0  0  0  0  0  0  0  0  0  0  0
   -2.0360   16.0420   -5.2880 C   0  0  0  0  0  0  0  0  0  0  0  0
   -2.6920   13.7170   -5.4390 C   0  0  0  0  0  0  0  0  0  0  0  0
   -2.2850   14.6730   -1.8420 N   0  0  0  0  0  0  0  0  0  0  0  0
   -2.5890   14.7060    0.5860 C   0  0  0  0  0  0  0  0  0  0  0  0
   -1.8100   14.5200    1.7060 N   0  0  0  0  0  0  0  0  0  0  0  0
    0.0880   17.8280   -4.5990 O   0  0  0  0  0  0  0  0  0  0  0  0
   -3.0180   15.0730   -5.5190 C   0  0  0  0  0  0  0  0  0  0  0  0
   -3.6070   14.9740   -1.8540 C   0  0  0  0  0  0  0  0  0  0  0  0
   -3.9510   15.0070    0.4520 C   0  0  0  0  0  0  0  0  0  0  0  0
   -4.7820   15.1630    1.5690 N   0  0  0  0  0  0  0  0  0  0  0  0
   -4.4440   15.1420   -0.8080 N   0  0  0  0  0  0  0  0  0  0  0  0
   -6.1620   14.7380    1.3950 C   0  0  0  0  0  0  0  0  0  0  0  0
   -6.4780   13.2860    1.5060 C   0  0  0  0  0  0  0  0  0  0  0  0
   -6.3880   12.5390    0.3700 O   0  0  0  0  0  0  0  0  0  0  0  0
   -6.8730   12.4970    2.5640 C   0  0  0  0  0  0  0  0  0  0  0  0
   -7.0390   11.2000    2.0520 C   0  0  0  0  0  0  0  0  0  0  0  0
   -6.7310   11.2750    0.7140 C   0  0  0  0  0  0  0  0  0  0  0  0
  1  2  1  0
  2  3  2  3
  2  4  1  0
  3  5  1  0
  4  6  1  0
  6  7  1  0
  6  8  2  0
  5  9  1  0
  7 10  2  0
  8 11  1  0
  7 12  1  0
  9 13  1  0
  9 14  1  0
 10 15  1  0
 11 15  1  0
 10 16  1  0
 12 17  2  0
 13 18  2  0
 13 19  1  0
 14 20  2  0
 19 20  1  0
 15 21  2  0
 16 22  2  0
 17 22  1  0
 18 23  1  0
 19 24  2  0
 24 25  1  0
 23 26  2  0
 24 26  1  0
 25 27  1  0
 27 28  1  0
 28 29  1  0
 28 30  2  0
 30 31  1  0
 29 32  1  0
 31 32  2  0
M  END
