mac-x0439-diamond-x0587_0_A
     RDKit          3D

 29 31  0  0  0  0  0  0  0  0999 V2000
   -3.1190   15.7240   -5.4760 Cl  0  0  0  0  0  0  0  0  0  0  0  0
   -1.7390   16.7410   -5.3100 C   0  0  0  0  0  0  0  0  0  0  0  0
   -0.8520   16.5820   -4.1290 C   0  0  1  0  0  0  0  0  0  0  0  0
   -1.4600   17.6900   -6.2180 C   0  0  0  0  0  0  0  0  0  0  0  0
   -0.5000   15.3120   -3.4210 C   0  0  0  0  0  0  0  0  0  0  0  0
    0.5580   16.9730   -4.4950 C   0  0  0  0  0  0  0  0  0  0  0  0
   -0.2780   18.5290   -6.0940 C   0  0  0  0  0  0  0  0  0  0  0  0
    0.8430   15.1820   -3.3920 C   0  0  0  0  0  0  0  0  0  0  0  0
    1.4880   16.1840   -4.0640 N   0  0  0  0  0  0  0  0  0  0  0  0
    0.7410   18.2130   -5.2740 C   0  0  0  0  0  0  0  0  0  0  0  0
    1.6010   14.0870   -2.7040 C   0  0  0  0  0  0  0  0  0  0  0  0
    2.9520   14.2550   -2.7700 O   0  0  0  0  0  0  0  0  0  0  0  0
    1.0990   13.0800   -2.0780 N   0  0  0  0  0  0  0  0  0  0  0  0
   -0.3540   12.9080   -1.9700 C   0  0  0  0  0  0  0  0  0  0  0  0
   -0.8750   13.7620   -0.8050 C   0  0  0  0  0  0  0  0  0  0  0  0
   -2.3850   13.6250   -0.6040 C   0  0  0  0  0  0  0  0  0  0  0  0
   -3.1300   14.7610   -1.0510 O   0  0  0  0  0  0  0  0  0  0  0  0
   -4.4830   14.4890   -1.4590 C   0  0  0  0  0  0  0  0  0  0  0  0
   -4.4640   13.2410   -2.0120 F   0  0  0  0  0  0  0  0  0  0  0  0
   -4.7880   15.3170   -2.5000 F   0  0  0  0  0  0  0  0  0  0  0  0
   -5.4890   14.5780   -0.2980 C   0  0  0  0  0  0  0  0  0  0  0  0
   -6.8120   14.4420   -0.5760 N   0  0  0  0  0  0  0  0  0  0  0  0
   -5.0130   14.7920    0.9500 N   0  0  0  0  0  0  0  0  0  0  0  0
   -7.6770   14.5370    0.4600 C   0  0  0  0  0  0  0  0  0  0  0  0
   -5.9220   14.8790    1.9430 C   0  0  0  0  0  0  0  0  0  0  0  0
   -7.2800   14.7630    1.7600 C   0  0  0  0  0  0  0  0  0  0  0  0
   -8.2710   14.8800    2.8380 C   0  0  0  0  0  0  0  0  0  0  0  0
   -7.8080   14.9110    4.1200 N   0  0  0  0  0  0  0  0  0  0  0  0
   -9.4690   14.9600    2.5940 O   0  0  0  0  0  0  0  0  0  0  0  0
  1  2  1  0
  2  3  1  0
  2  4  2  0
  3  5  1  6
  3  6  1  0
  4  7  1  0
  5  8  2  0
  6  9  2  0
  8  9  1  0
  6 10  1  0
  7 10  2  0
  8 11  1  0
 11 12  1  0
 11 13  2  3
 13 14  1  0
 14 15  1  0
 15 16  1  0
 16 17  1  0
 17 18  1  0
 18 19  1  0
 18 20  1  0
 18 21  1  0
 21 22  2  0
 21 23  1  0
 22 24  1  0
 23 25  2  0
 24 26  2  0
 25 26  1  0
 26 27  1  0
 27 28  1  0
 27 29  2  0
M  END
