mac-x0587-mac-x0301
     RDKit          3D

 18 19  0  0  0  0  0  0  0  0999 V2000
    0.0440   16.0030   -4.2830 C   0  0  0  0  0  0  0  0  0  0  0  0
   -0.5510   14.7270   -3.6740 C   0  0  2  0  0  0  0  0  0  0  0  0
   -0.4540   13.3700   -4.9180 S   0  0  0  0  0  0  0  0  0  0  0  0
   -2.0070   15.0000   -3.2240 C   0  0  0  0  0  0  0  0  0  0  0  0
   -0.6310   11.8750   -3.8850 C   0  0  0  0  0  0  0  0  0  0  0  0
   -2.8880   15.2760   -4.0510 O   0  0  0  0  0  0  0  0  0  0  0  0
   -2.2750   14.9270   -1.8620 N   0  0  0  0  0  0  0  0  0  0  0  0
    0.5790   11.6260   -3.0170 C   0  0  0  0  0  0  0  0  0  0  0  0
   -3.5630   14.9760   -1.3180 C   0  0  0  0  0  0  0  0  0  0  0  0
   -1.3200   15.1390   -0.7790 C   0  0  1  0  0  0  0  0  0  0  0  0
    1.7080   11.8250   -3.3830 O   0  0  0  0  0  0  0  0  0  0  0  0
    0.3290   11.1560   -1.7680 O   0  0  0  0  0  0  0  0  0  0  0  0
   -0.5100   16.2170   -1.0480 O   0  0  0  0  0  0  0  0  0  0  0  0
   -3.4850   15.2680   -0.0030 C   0  0  0  0  0  0  0  0  0  0  0  0
   -2.1580   15.4400    0.3840 N   0  0  0  0  0  0  0  0  0  0  0  0
   -0.5410   14.0120   -0.4120 O   0  0  0  0  0  0  0  0  0  0  0  0
   -1.6250   14.7330    1.4930 O   0  0  0  0  0  0  0  0  0  0  0  0
   -0.3610   14.3030    0.9790 C   0  0  0  0  0  0  0  0  0  0  0  0
  2  1  1  6
  2  3  1  0
  2  4  1  0
  3  5  1  0
  4  6  2  0
  4  7  1  0
  5  8  1  0
  7  9  1  0
  7 10  1  0
  8 11  2  0
  8 12  1  0
 10 13  1  6
  9 14  2  0
 10 15  1  0
 14 15  1  0
 10 16  1  0
 15 17  1  0
 16 18  1  0
 17 18  1  0
M  END
