mac-x0341-mac-x0115
     RDKit          3D

 25 27  0  0  0  0  0  0  0  0999 V2000
   -6.9820   14.2220    2.1890 N   0  0  0  0  0  0  0  0  0  0  0  0
   -6.1630   14.5190    1.1460 C   0  0  0  0  0  0  0  0  0  0  0  0
   -4.8880   14.3540    1.2600 N   0  0  0  0  0  0  0  0  0  0  0  0
   -6.7320   14.9940    0.0040 N   0  0  0  0  0  0  0  0  0  0  0  0
   -6.0040   15.2190   -1.1330 C   0  0  0  0  0  0  0  0  0  0  0  0
   -4.0860   14.7210    0.2110 C   0  0  0  0  0  0  0  0  0  0  0  0
   -6.5380   15.4080   -2.2170 O   0  0  0  0  0  0  0  0  0  0  0  0
   -4.5310   15.1830   -0.9620 C   0  0  0  0  0  0  0  0  0  0  0  0
   -2.6100   14.5820    0.4820 C   0  0  0  0  0  0  0  0  0  0  0  0
   -1.6540   14.7610   -0.7340 C   0  0  1  0  0  0  0  0  0  0  0  0
   -3.6220   15.6390   -1.9940 C   0  0  0  0  0  0  0  0  0  0  0  0
   -2.2910   15.4920   -1.9000 C   0  0  0  0  0  0  0  0  0  0  0  0
   -0.3960   15.2900   -0.0530 C   0  0  0  0  0  0  0  0  0  0  0  0
   -1.1910   13.5260   -1.4960 C   0  0  0  0  0  0  0  0  0  0  0  0
   -0.4680   16.0360    0.9030 O   0  0  0  0  0  0  0  0  0  0  0  0
   -0.0350   13.8480   -2.3620 N   0  0  0  0  0  0  0  0  0  0  0  0
    0.8330   14.8450   -0.4950 N   0  0  0  0  0  0  0  0  0  0  0  0
   -0.2550   14.1380   -3.8120 C   0  0  0  0  0  0  0  0  0  0  0  0
    1.1010   14.2160   -1.6790 C   0  0  0  0  0  0  0  0  0  0  0  0
    0.3510   15.4630   -4.3330 C   0  0  0  0  0  0  0  0  0  0  0  0
    2.6970   13.9700   -2.1020 S   0  0  0  0  0  0  0  0  0  0  0  0
   -0.6330   16.1830   -5.0950 O   0  0  0  0  0  0  0  0  0  0  0  0
   -0.2480   17.4920   -5.5260 C   0  0  0  0  0  0  0  0  0  0  0  0
   -1.4690   18.3910   -5.3660 C   0  0  0  0  0  0  0  0  0  0  0  0
    0.9020   18.0280   -4.6920 C   0  0  0  0  0  0  0  0  0  0  0  0
  1  2  1  0
  2  3  2  0
  2  4  1  0
  4  5  1  0
  3  6  1  0
  5  7  2  0
  5  8  1  0
  6  8  2  0
  6  9  1  0
 10  9  1  1
  8 11  1  0
 10 12  1  0
 11 12  2  0
 10 13  1  0
 10 14  1  0
 13 15  2  0
 14 16  1  0
 13 17  1  0
 16 18  1  0
 16 19  1  0
 17 19  1  0
 18 20  1  0
 19 21  2  0
 20 22  1  0
 22 23  1  0
 23 24  1  0
 23 25  1  0
M  END
