mac-x0441-mac-x0333
     RDKit          3D

 29 32  0  0  0  0  0  0  0  0999 V2000
    0.4820   10.9220   -3.3010 O   0  0  0  0  0  0  0  0  0  0  0  0
    0.6730   12.2480   -3.4650 C   0  0  0  0  0  0  0  0  0  0  0  0
    1.1750   12.9120   -2.5670 O   0  0  0  0  0  0  0  0  0  0  0  0
    0.2450   12.8720   -4.7900 C   0  0  2  0  0  0  0  0  0  0  0  0
   -0.9990   13.7890   -4.5500 C   0  0  0  0  0  0  0  0  0  0  0  0
    0.0690   11.8830   -5.8640 N   0  0  0  0  0  0  0  0  0  0  0  0
   -1.3730   14.0460   -3.0700 C   0  0  0  0  0  0  0  0  0  0  0  0
    0.8710   11.9180   -6.9820 N   0  0  0  0  0  0  0  0  0  0  0  0
   -0.8370   10.8650   -5.9320 C   0  0  0  0  0  0  0  0  0  0  0  0
   -2.4430   15.0120   -2.9690 O   0  0  0  0  0  0  0  0  0  0  0  0
    0.4280   10.8870   -7.7640 C   0  0  0  0  0  0  0  0  0  0  0  0
   -0.6270   10.2190   -7.1240 C   0  0  0  0  0  0  0  0  0  0  0  0
   -1.8720   10.4910   -4.9380 C   0  0  0  0  0  0  0  0  0  0  0  0
    0.9290   10.4510   -9.1300 C   0  0  0  0  0  0  0  0  0  0  0  0
   -1.4160    9.0400   -7.5870 C   0  0  0  0  0  0  0  0  0  0  0  0
   -2.9700    9.6880   -5.6610 C   0  0  0  0  0  0  0  0  0  0  0  0
   -3.2670   14.9930   -1.8520 C   0  0  0  0  0  0  0  0  0  0  0  0
    1.6100    9.2760   -9.0640 F   0  0  0  0  0  0  0  0  0  0  0  0
   -0.1170   10.2030   -9.9530 F   0  0  0  0  0  0  0  0  0  0  0  0
    1.6750   11.3170   -9.8380 F   0  0  0  0  0  0  0  0  0  0  0  0
   -2.3810    8.5400   -6.4970 C   0  0  0  0  0  0  0  0  0  0  0  0
   -4.6430   15.0060   -2.1320 C   0  0  0  0  0  0  0  0  0  0  0  0
   -2.8390   14.9640   -0.5070 C   0  0  0  0  0  0  0  0  0  0  0  0
   -5.5300   14.9840   -1.0720 C   0  0  0  0  0  0  0  0  0  0  0  0
   -3.7620   14.9470    0.5500 C   0  0  0  0  0  0  0  0  0  0  0  0
   -5.1010   14.9550    0.2300 C   0  0  0  0  0  0  0  0  0  0  0  0
   -6.8910   14.9820   -1.1520 O   0  0  0  0  0  0  0  0  0  0  0  0
   -6.1410   14.9350    1.1080 O   0  0  0  0  0  0  0  0  0  0  0  0
   -7.2170   14.6270    0.2050 C   0  0  0  0  0  0  0  0  0  0  0  0
  1  2  1  0
  2  3  2  0
  2  4  1  0
  4  5  1  1
  4  6  1  0
  5  7  1  0
  6  8  1  0
  6  9  1  0
  7 10  1  0
  8 11  2  0
  9 12  2  0
 11 12  1  0
  9 13  1  0
 11 14  1  0
 12 15  1  0
 13 16  1  0
 10 17  1  0
 14 18  1  0
 14 19  1  0
 14 20  1  0
 15 21  1  0
 16 21  1  0
 17 22  2  0
 17 23  1  0
 22 24  1  0
 23 25  2  0
 24 26  2  0
 25 26  1  0
 24 27  1  0
 26 28  1  0
 27 29  1  0
 28 29  1  0
M  END
