mac-x0283-mac-x1493
     RDKit          3D

 13 14  0  0  0  0  0  0  0  0999 V2000
   -6.8540   14.7200    2.4740 N   0  0  0  0  0  0  0  0  0  0  0  0
   -6.6830   14.7590    1.1400 C   0  0  0  0  0  0  0  0  0  0  0  0
   -7.6790   14.7430    0.2520 N   0  0  0  0  0  0  0  0  0  0  0  0
   -5.4150   14.8280    0.5020 C   0  0  0  0  0  0  0  0  0  0  0  0
   -7.0770   14.8020   -0.9930 O   0  0  0  0  0  0  0  0  0  0  0  0
   -5.7240   14.8480   -0.8460 C   0  0  0  0  0  0  0  0  0  0  0  0
   -4.0650   14.8750    0.8890 C   0  0  0  0  0  0  0  0  0  0  0  0
   -4.7830   14.9010   -1.8760 C   0  0  0  0  0  0  0  0  0  0  0  0
   -3.0880   14.9230   -0.1100 C   0  0  0  0  0  0  0  0  0  0  0  0
   -3.4390   14.9300   -1.4710 C   0  0  0  0  0  0  0  0  0  0  0  0
   -2.3190   14.9580   -2.4460 C   0  0  0  0  0  0  0  0  0  0  0  0
   -1.1360   14.6860   -1.8720 O   0  0  0  0  0  0  0  0  0  0  0  0
   -2.4030   15.1930   -3.6360 O   0  0  0  0  0  0  0  0  0  0  0  0
  1  2  1  0
  2  3  2  0
  2  4  1  0
  3  5  1  0
  4  6  2  0
  5  6  1  0
  4  7  1  0
  6  8  1  0
  7  9  2  0
  8 10  2  0
  9 10  1  0
 10 11  1  0
 11 12  1  0
 11 13  2  0
M  END
