mac-x0326-diamond-x0900_0_A
     RDKit          3D

 20 22  0  0  0  0  0  0  0  0999 V2000
   -5.5510   15.9050   -1.0620 N   0  0  0  0  0  0  0  0  0  0  0  0
   -4.2120   15.7240   -1.2940 C   0  0  0  0  0  0  0  0  0  0  0  0
   -3.5970   15.4180   -2.5090 C   0  0  0  0  0  0  0  0  0  0  0  0
   -6.0300   14.8300   -0.2600 C   0  0  1  0  0  0  0  0  0  0  0  0
   -3.4210   15.8470   -0.1540 C   0  0  0  0  0  0  0  0  0  0  0  0
   -5.5770   13.5230   -0.6550 N   0  0  0  0  0  0  0  0  0  0  0  0
   -5.5240   14.8990    1.1990 C   0  0  0  0  0  0  0  0  0  0  0  0
   -2.2000   15.2310   -2.5630 C   0  0  0  0  0  0  0  0  0  0  0  0
   -2.0500   15.6700   -0.1680 C   0  0  0  0  0  0  0  0  0  0  0  0
   -4.3100   13.9900    1.2450 C   0  0  0  0  0  0  0  0  0  0  0  0
   -4.1950   13.4590   -0.1690 C   0  0  0  0  0  0  0  0  0  0  0  0
   -1.4570   14.9190   -3.6940 N   0  0  0  0  0  0  0  0  0  0  0  0
   -1.4590   15.3590   -1.3850 C   0  0  0  0  0  0  0  0  0  0  0  0
   -0.1820   14.8110   -3.3700 C   0  0  0  0  0  0  0  0  0  0  0  0
    0.1970   15.0750   -1.7180 S   0  0  0  0  0  0  0  0  0  0  0  0
    0.9150   14.4790   -4.3460 C   0  0  0  0  0  0  0  0  0  0  0  0
    1.0590   12.9730   -4.5570 C   0  0  0  0  0  0  0  0  0  0  0  0
    1.0800   12.2120   -3.2530 C   0  0  0  0  0  0  0  0  0  0  0  0
    0.3090   11.1050   -3.2180 O   0  0  0  0  0  0  0  0  0  0  0  0
    1.7420   12.5590   -2.2920 O   0  0  0  0  0  0  0  0  0  0  0  0
  1  2  1  0
  2  3  2  0
  4  1  1  6
  2  5  1  0
  4  6  1  0
  4  7  1  0
  3  8  1  0
  5  9  2  0
  7 10  1  0
  6 11  1  0
 10 11  1  0
  8 12  1  0
  8 13  2  0
  9 13  1  0
 12 14  2  0
 13 15  1  0
 14 15  1  0
 14 16  1  0
 16 17  1  0
 17 18  1  0
 18 19  1  0
 18 20  2  0
M  END
