mac-x0436-mac-x0522
     RDKit          3D

 32 35  0  0  0  0  0  0  0  0999 V2000
    0.7600   11.1410   -3.1060 O   0  0  0  0  0  0  0  0  0  0  0  0
    1.2200   12.4110   -3.0630 C   0  0  0  0  0  0  0  0  0  0  0  0
    1.3100   13.0210   -2.0120 O   0  0  0  0  0  0  0  0  0  0  0  0
    1.6160   12.9510   -4.4320 C   0  0  0  0  0  0  0  0  0  0  0  0
    0.4430   13.3190   -5.3480 C   0  0  0  0  0  0  0  0  0  0  0  0
   -0.3160   12.0980   -5.8220 C   0  0  0  0  0  0  0  0  0  0  0  0
   -1.6630   11.8550   -5.2100 C   0  0  0  0  0  0  0  0  0  0  0  0
    0.1400   11.2790   -6.7170 N   0  0  0  0  0  0  0  0  0  0  0  0
   -2.3360   12.7960   -4.8240 O   0  0  0  0  0  0  0  0  0  0  0  0
   -2.0150   10.5330   -5.1570 N   0  0  0  0  0  0  0  0  0  0  0  0
   -0.6570   10.1530   -7.0490 C   0  0  0  0  0  0  0  0  0  0  0  0
   -1.7420    9.7570   -6.2530 C   0  0  0  0  0  0  0  0  0  0  0  0
   -0.3840    9.4020   -8.1840 C   0  0  0  0  0  0  0  0  0  0  0  0
    0.7240    9.7460   -9.1350 C   0  0  0  0  0  0  0  0  0  0  0  0
   -1.1720    8.2710   -8.4790 C   0  0  0  0  0  0  0  0  0  0  0  0
   -2.5270    8.6450   -6.5340 C   0  0  0  0  0  0  0  0  0  0  0  0
    0.4990    9.0710  -10.4860 C   0  0  0  0  0  0  0  0  0  0  0  0
   -2.2340    7.8920   -7.6580 C   0  0  0  0  0  0  0  0  0  0  0  0
    1.5250    9.4110  -11.4380 N   0  0  0  0  0  0  0  0  0  0  0  0
    2.6940    8.8810  -11.5200 C   0  0  0  0  0  0  0  0  0  0  0  0
    3.2620    7.8700  -10.7270 N   0  0  0  0  0  0  0  0  0  0  0  0
    3.4090    9.5400  -12.6670 C   0  0  0  0  0  0  0  0  0  0  0  0
    2.7540    7.0270   -9.7660 C   0  0  0  0  0  0  0  0  0  0  0  0
    4.5390    8.9860  -13.2710 C   0  0  0  0  0  0  0  0  0  0  0  0
    2.8930   10.7620  -13.1310 C   0  0  0  0  0  0  0  0  0  0  0  0
    3.1270    5.7900   -9.5110 N   0  0  0  0  0  0  0  0  0  0  0  0
    1.4800    7.5510   -8.7180 S   0  0  0  0  0  0  0  0  0  0  0  0
    5.1450    9.6580  -14.3360 C   0  0  0  0  0  0  0  0  0  0  0  0
    3.5030   11.4260  -14.1920 C   0  0  0  0  0  0  0  0  0  0  0  0
    1.4450    6.0600   -7.9070 C   0  0  0  0  0  0  0  0  0  0  0  0
    2.3880    5.2490   -8.4650 C   0  0  0  0  0  0  0  0  0  0  0  0
    4.6290   10.8720  -14.7950 C   0  0  0  0  0  0  0  0  0  0  0  0
  1  2  1  0
  2  3  2  0
  2  4  1  0
  4  5  1  0
  5  6  1  0
  6  7  1  0
  6  8  2  0
  7  9  2  0
  7 10  1  0
  8 11  1  0
 10 12  1  0
 11 12  2  0
 11 13  1  0
 13 14  1  0
 13 15  2  0
 12 16  1  0
 14 17  1  0
 15 18  1  0
 16 18  2  0
 17 19  1  0
 19 20  2  3
 20 21  1  0
 20 22  1  0
 21 23  1  0
 22 24  2  0
 22 25  1  0
 23 26  2  0
 23 27  1  0
 24 28  1  0
 25 29  2  0
 27 30  1  0
 26 31  1  0
 30 31  2  0
 28 32  2  0
 29 32  1  0
M  END
