mac-x0527-diamond-x0727_0_A
     RDKit          3D

 30 32  0  0  0  0  0  0  0  0999 V2000
   -3.6820   15.4150   -3.6050 O   0  0  0  0  0  0  0  0  0  0  0  0
   -3.0920   15.0950   -2.5780 C   0  0  0  0  0  0  0  0  0  0  0  0
   -1.7530   14.7400   -2.5690 N   0  0  0  0  0  0  0  0  0  0  0  0
   -3.7920   15.0660   -1.2680 C   0  0  0  0  0  0  0  0  0  0  0  0
   -1.0130   14.7220   -3.8250 C   0  0  1  0  0  0  0  0  0  0  0  0
   -5.1730   15.1440   -1.2060 C   0  0  0  0  0  0  0  0  0  0  0  0
   -3.0210   14.9590   -0.1520 N   0  0  0  0  0  0  0  0  0  0  0  0
    0.5100   14.8560   -3.6490 C   0  0  0  0  0  0  0  0  0  0  0  0
   -1.3540   13.4620   -4.5830 C   0  0  0  0  0  0  0  0  0  0  0  0
   -5.8460   15.1140   -0.0330 N   0  0  0  0  0  0  0  0  0  0  0  0
   -3.6940   14.9310    1.0160 C   0  0  0  0  0  0  0  0  0  0  0  0
    1.3030   14.0190   -4.6770 C   0  0  0  0  0  0  0  0  0  0  0  0
   -2.1630   12.4590   -4.0330 C   0  0  0  0  0  0  0  0  0  0  0  0
   -0.8490   13.2880   -5.8640 C   0  0  0  0  0  0  0  0  0  0  0  0
   -5.0740   15.0060    1.0770 C   0  0  0  0  0  0  0  0  0  0  0  0
    1.3150   12.4810   -4.5620 C   0  0  2  0  0  0  0  0  0  0  0  0
   -2.4560   11.3070   -4.7670 C   0  0  0  0  0  0  0  0  0  0  0  0
   -1.1400   12.1500   -6.6000 C   0  0  0  0  0  0  0  0  0  0  0  0
    0.3560   11.7690   -5.4120 N   0  0  0  0  0  0  0  0  0  0  0  0
    1.0780   12.0010   -3.1270 C   0  0  0  0  0  0  0  0  0  0  0  0
   -1.9470   11.1550   -6.0490 C   0  0  0  0  0  0  0  0  0  0  0  0
    0.4220   11.0200   -2.7920 O   0  0  0  0  0  0  0  0  0  0  0  0
    0.6630   11.1570   -6.6190 C   0  0  0  0  0  0  0  0  0  0  0  0
    1.6820   12.7730   -2.2050 O   0  0  0  0  0  0  0  0  0  0  0  0
    1.6430   11.4130   -7.2700 O   0  0  0  0  0  0  0  0  0  0  0  0
   -0.4110   10.1290   -6.9950 C   0  0  0  0  0  0  0  0  0  0  0  0
   -0.8810   10.0870   -8.4380 C   0  0  0  0  0  0  0  0  0  0  0  0
   -0.0950    8.6670   -6.7390 C   0  0  0  0  0  0  0  0  0  0  0  0
   -1.8390    8.8940   -8.4020 C   0  0  0  0  0  0  0  0  0  0  0  0
   -1.3970    8.0350   -7.2080 C   0  0  0  0  0  0  0  0  0  0  0  0
  1  2  2  0
  2  3  1  0
  2  4  1  0
  3  5  1  0
  4  6  2  0
  4  7  1  0
  5  8  1  1
  5  9  1  0
  6 10  1  0
  7 11  2  0
  8 12  1  0
  9 13  2  0
  9 14  1  0
 10 15  2  0
 11 15  1  0
 16 12  1  1
 13 17  1  0
 14 18  2  0
 16 19  1  0
 16 20  1  0
 17 21  2  0
 18 21  1  0
 20 22  2  0
 19 23  1  0
 20 24  1  0
 23 25  2  0
 23 26  1  0
 26 27  1  0
 26 28  1  0
 27 29  1  0
 28 30  1  0
 29 30  1  0
M  END
