mac-x0337-mac-x0263
     RDKit          3D

 25 27  0  0  0  0  0  0  0  0999 V2000
   -5.8860    8.9690   -2.0060 C   0  0  0  0  0  0  0  0  0  0  0  0
   -5.3170   10.3530   -2.0500 C   0  0  0  0  0  0  0  0  0  0  0  0
   -5.9540   11.4070   -1.3830 C   0  0  0  0  0  0  0  0  0  0  0  0
   -4.1360   10.5990   -2.7620 C   0  0  0  0  0  0  0  0  0  0  0  0
   -3.6000   11.8780   -2.8300 C   0  0  0  0  0  0  0  0  0  0  0  0
   -5.4200   12.6940   -1.4490 C   0  0  0  0  0  0  0  0  0  0  0  0
   -4.2460   12.9150   -2.1840 C   0  0  0  0  0  0  0  0  0  0  0  0
   -3.5630   14.5420   -2.3160 S   0  0  0  0  0  0  0  0  0  0  0  0
   -3.0640   14.8070   -3.6330 O   0  0  0  0  0  0  0  0  0  0  0  0
   -2.7320   14.7380   -1.1320 O   0  0  0  0  0  0  0  0  0  0  0  0
   -5.0120   15.3750   -2.2070 N   0  0  0  0  0  0  0  0  0  0  0  0
   -5.0230   15.3640   -0.8920 C   0  0  0  0  0  0  0  0  0  0  0  0
   -6.0140   15.0600   -0.0200 C   0  0  0  0  0  0  0  0  0  0  0  0
   -3.7880   15.6980   -0.4570 C   0  0  0  0  0  0  0  0  0  0  0  0
   -7.3270   14.6970   -0.1180 N   0  0  0  0  0  0  0  0  0  0  0  0
   -5.7380   15.0930    1.3310 C   0  0  0  0  0  0  0  0  0  0  0  0
   -3.4800   15.7470    0.8520 C   0  0  0  0  0  0  0  0  0  0  0  0
   -7.7900   14.5340    1.1610 C   0  0  0  0  0  0  0  0  0  0  0  0
   -6.8510   14.7590    2.0490 N   0  0  0  0  0  0  0  0  0  0  0  0
   -4.4470   15.4490    1.7710 C   0  0  0  0  0  0  0  0  0  0  0  0
   -9.1820   14.1670    1.4760 C   0  0  0  0  0  0  0  0  0  0  0  0
   -9.9510   15.4720    1.6360 C   0  0  0  0  0  0  0  0  0  0  0  0
  -10.9440   15.3780    2.7480 C   0  0  0  0  0  0  0  0  0  0  0  0
  -11.7050   14.2720    2.6870 O   0  0  0  0  0  0  0  0  0  0  0  0
  -11.1040   16.1920    3.6420 O   0  0  0  0  0  0  0  0  0  0  0  0
  1  2  1  0
  2  3  2  0
  2  4  1  0
  4  5  2  0
  3  6  1  0
  5  7  1  0
  6  7  2  0
  7  8  1  0
  8  9  2  0
  8 10  2  0
  8 11  1  0
 11 12  1  0
 12 13  1  0
 12 14  2  0
 13 15  1  0
 13 16  2  0
 14 17  1  0
 15 18  1  0
 16 19  1  0
 18 19  2  0
 16 20  1  0
 17 20  2  0
 18 21  1  0
 21 22  1  0
 22 23  1  0
 23 24  1  0
 23 25  2  0
M  END
