mac-x0564-mac-x0271
     RDKit          3D

 21 24  0  0  0  0  0  0  0  0999 V2000
    0.7990   14.4060   -1.0530 O   0  0  0  0  0  0  0  0  0  0  0  0
   -0.0010   14.5030   -1.9720 C   0  0  0  0  0  0  0  0  0  0  0  0
    0.3840   14.3600   -3.3080 N   0  0  0  0  0  0  0  0  0  0  0  0
   -1.4170   14.7550   -1.8050 C   0  0  0  0  0  0  0  0  0  0  0  0
   -2.3060   14.7630   -2.8500 C   0  0  0  0  0  0  0  0  0  0  0  0
   -0.5220   14.3890   -4.2390 C   0  0  0  0  0  0  0  0  0  0  0  0
   -2.0840   15.0120   -0.6170 O   0  0  0  0  0  0  0  0  0  0  0  0
   -1.8820   14.5450   -4.1100 N   0  0  0  0  0  0  0  0  0  0  0  0
   -3.4020   15.1690   -0.9750 C   0  0  0  0  0  0  0  0  0  0  0  0
   -3.5600   15.0020   -2.3000 C   0  0  0  0  0  0  0  0  0  0  0  0
   -4.9040   15.0990   -2.8020 C   0  0  1  0  0  0  0  0  0  0  0  0
   -4.5350   15.4890   -0.0410 C   0  0  0  0  0  0  0  0  0  0  0  0
   -4.9270   14.7330   -4.1670 O   0  0  0  0  0  0  0  0  0  0  0  0
   -5.7810   14.1850   -1.9300 C   0  0  0  0  0  0  0  0  0  0  0  0
   -5.8230   14.6680   -0.4410 C   0  0  2  0  0  0  0  0  0  0  0  0
   -7.1080   15.3920   -0.3190 O   0  0  0  0  0  0  0  0  0  0  0  0
   -5.7600   13.5550    0.5520 C   0  0  0  0  0  0  0  0  0  0  0  0
   -6.5810   13.4660    1.6070 C   0  0  0  0  0  0  0  0  0  0  0  0
   -8.1010   15.0650    0.5640 C   0  0  0  0  0  0  0  0  0  0  0  0
   -9.2970   15.2550    0.3300 O   0  0  0  0  0  0  0  0  0  0  0  0
   -7.6440   14.4580    1.8520 C   0  0  0  0  0  0  0  0  0  0  0  0
  1  2  2  0
  2  3  1  0
  2  4  1  0
  4  5  2  0
  3  6  2  0
  4  7  1  0
  5  8  1  0
  6  8  1  0
  7  9  1  0
  5 10  1  0
  9 10  2  0
 10 11  1  0
  9 12  1  0
 11 13  1  6
 11 14  1  0
 15 12  1  1
 14 15  1  0
 15 16  1  0
 15 17  1  0
 17 18  2  0
 16 19  1  0
 19 20  2  0
 18 21  1  0
 19 21  1  0
M  END
