mac-x1493-mac-x0346
     RDKit          3D

 17 18  0  0  0  0  0  0  0  0999 V2000
   -1.1900   14.7640   -1.7240 O   0  0  0  0  0  0  0  0  0  0  0  0
   -2.3520   14.8490   -2.4030 C   0  0  0  0  0  0  0  0  0  0  0  0
   -2.3310   15.1070   -3.5960 O   0  0  0  0  0  0  0  0  0  0  0  0
   -3.5540   14.5880   -1.5230 C   0  0  1  0  0  0  0  0  0  0  0  0
   -3.4530   15.1530   -0.1070 C   0  0  0  0  0  0  0  0  0  0  0  0
   -4.8780   14.9920   -2.1490 C   0  0  0  0  0  0  0  0  0  0  0  0
   -4.4260   14.4020    0.7890 C   0  0  2  0  0  0  0  0  0  0  0  0
   -5.9450   14.8220   -1.1550 N   0  0  0  0  0  0  0  0  0  0  0  0
   -7.2310   14.9670   -1.5830 C   0  0  0  0  0  0  0  0  0  0  0  0
   -5.6060   13.8870   -0.0860 C   0  0  2  0  0  0  0  0  0  0  0  0
   -4.8710   15.1610    2.0030 C   0  0  0  0  0  0  0  0  0  0  0  0
   -8.2370   15.0910   -0.6420 N   0  0  0  0  0  0  0  0  0  0  0  0
   -7.5130   14.9720   -2.7620 O   0  0  0  0  0  0  0  0  0  0  0  0
   -6.8590   13.6100    0.6970 C   0  0  0  0  0  0  0  0  0  0  0  0
   -6.1030   15.0150    2.5050 C   0  0  0  0  0  0  0  0  0  0  0  0
   -7.8550   14.9320    0.7160 O   0  0  0  0  0  0  0  0  0  0  0  0
   -7.0710   14.1450    1.9060 C   0  0  0  0  0  0  0  0  0  0  0  0
  1  2  1  0
  2  3  2  0
  4  2  1  6
  4  5  1  0
  4  6  1  0
  7  5  1  6
  6  8  1  0
  8  9  1  0
  7 10  1  0
  8 10  1  0
  7 11  1  0
  9 12  1  0
  9 13  2  0
 10 14  1  1
 11 15  2  0
 12 16  1  0
 14 17  2  0
 15 17  1  0
M  END
