mac-x0441-mac-x0565
     RDKit          3D

 30 33  0  0  0  0  0  0  0  0999 V2000
    0.6980   11.1730   -3.1080 O   0  0  0  0  0  0  0  0  0  0  0  0
    0.7130   12.3770   -3.7110 C   0  0  0  0  0  0  0  0  0  0  0  0
    1.5840   13.1700   -3.4030 O   0  0  0  0  0  0  0  0  0  0  0  0
   -0.4100   12.5890   -4.7130 C   0  0  1  0  0  0  0  0  0  0  0  0
   -0.9130   14.0240   -5.0320 C   0  0  0  0  0  0  0  0  0  0  0  0
   -0.2770   11.7200   -5.8750 N   0  0  0  0  0  0  0  0  0  0  0  0
    0.6050   11.8730   -6.9210 N   0  0  0  0  0  0  0  0  0  0  0  0
   -1.0650   10.6430   -6.0270 C   0  0  0  0  0  0  0  0  0  0  0  0
   -1.3870   14.8330   -3.8840 N   0  0  0  0  0  0  0  0  0  0  0  0
    0.3060   10.8190   -7.7570 C   0  0  0  0  0  0  0  0  0  0  0  0
   -0.7270   10.0490   -7.2020 C   0  0  0  0  0  0  0  0  0  0  0  0
   -2.1150   10.1880   -5.0940 C   0  0  0  0  0  0  0  0  0  0  0  0
   -2.6670   14.8670   -3.2740 C   0  0  0  0  0  0  0  0  0  0  0  0
   -0.4940   14.9860   -2.7500 C   0  0  0  0  0  0  0  0  0  0  0  0
    0.9070   10.4350   -9.0980 C   0  0  0  0  0  0  0  0  0  0  0  0
   -1.3910    8.8230   -7.7170 C   0  0  0  0  0  0  0  0  0  0  0  0
   -3.1300    9.3760   -5.9040 C   0  0  0  0  0  0  0  0  0  0  0  0
   -2.5260   14.8530   -1.8910 C   0  0  0  0  0  0  0  0  0  0  0  0
   -3.9620   14.9170   -3.7940 C   0  0  0  0  0  0  0  0  0  0  0  0
   -1.2140   14.8070   -1.5110 O   0  0  0  0  0  0  0  0  0  0  0  0
    1.6120    9.2710   -9.0280 F   0  0  0  0  0  0  0  0  0  0  0  0
   -0.0880   10.1760   -9.9820 F   0  0  0  0  0  0  0  0  0  0  0  0
    1.6590   11.3260   -9.7580 F   0  0  0  0  0  0  0  0  0  0  0  0
   -2.4290    8.2720   -6.7180 C   0  0  0  0  0  0  0  0  0  0  0  0
   -3.5710   14.8860   -0.9910 C   0  0  0  0  0  0  0  0  0  0  0  0
   -5.0620   14.9500   -2.8990 C   0  0  0  0  0  0  0  0  0  0  0  0
   -4.8640   14.9340   -1.5010 C   0  0  0  0  0  0  0  0  0  0  0  0
   -6.0240   14.9670   -0.5690 C   0  0  0  0  0  0  0  0  0  0  0  0
   -5.6470   15.0990    0.7230 O   0  0  0  0  0  0  0  0  0  0  0  0
   -7.1880   14.8760   -0.9170 O   0  0  0  0  0  0  0  0  0  0  0  0
  1  2  1  0
  2  3  2  0
  2  4  1  0
  4  5  1  6
  4  6  1  0
  6  7  1  0
  6  8  1  0
  5  9  1  0
  7 10  2  0
  8 11  2  0
 10 11  1  0
  8 12  1  0
  9 13  1  0
  9 14  1  0
 10 15  1  0
 11 16  1  0
 12 17  1  0
 13 18  2  0
 13 19  1  0
 14 20  1  0
 18 20  1  0
 15 21  1  0
 15 22  1  0
 15 23  1  0
 16 24  1  0
 17 24  1  0
 18 25  1  0
 19 26  2  0
 25 27  2  0
 26 27  1  0
 27 28  1  0
 28 29  1  0
 28 30  2  0
M  END
