mac-x0224-diamond-x0962_1_A
     RDKit          3D

 18 19  0  0  0  0  0  0  0  0999 V2000
   -4.1980   16.1040    1.4690 C   0  0  0  0  0  0  0  0  0  0  0  0
   -2.9580   14.8180    1.3080 S   0  0  0  0  0  0  0  0  0  0  0  0
   -2.7230   14.8550   -0.4560 C   0  0  0  0  0  0  0  0  0  0  0  0
   -1.4180   14.5640   -0.8320 C   0  0  0  0  0  0  0  0  0  0  0  0
   -3.6860   15.1380   -1.4580 C   0  0  0  0  0  0  0  0  0  0  0  0
   -1.0410   14.5290   -2.1650 C   0  0  0  0  0  0  0  0  0  0  0  0
   -3.2860   15.0960   -2.8070 C   0  0  0  0  0  0  0  0  0  0  0  0
   -5.1350   15.5030   -1.2680 C   0  0  0  0  0  0  0  0  0  0  0  0
    0.3480   14.2100   -2.5170 C   0  0  0  0  0  0  0  0  0  0  0  0
   -1.9780   14.7920   -3.1590 C   0  0  0  0  0  0  0  0  0  0  0  0
   -5.9740   14.8910   -0.2200 C   0  0  0  0  0  0  0  0  0  0  0  0
   -1.6860   14.7730   -4.4950 O   0  0  0  0  0  0  0  0  0  0  0  0
    1.2160   14.1650   -1.6640 O   0  0  0  0  0  0  0  0  0  0  0  0
    0.5610   13.9710   -3.8160 O   0  0  0  0  0  0  0  0  0  0  0  0
   -5.5760   14.5200    1.0360 N   0  0  0  0  0  0  0  0  0  0  0  0
   -7.3090   14.5810   -0.2610 C   0  0  0  0  0  0  0  0  0  0  0  0
   -6.6670   14.0230    1.6820 C   0  0  0  0  0  0  0  0  0  0  0  0
   -7.7310   14.0470    0.9190 N   0  0  0  0  0  0  0  0  0  0  0  0
  1  2  1  0
  2  3  1  0
  3  4  2  0
  3  5  1  0
  4  6  1  0
  5  7  2  0
  5  8  1  0
  6  9  1  0
  6 10  2  0
  7 10  1  0
  8 11  1  0
 10 12  1  0
  9 13  2  0
  9 14  1  0
 11 15  1  0
 11 16  2  0
 15 17  1  0
 16 18  1  0
 17 18  2  0
M  END
