mac-x0159-diamond-x1012_0_A
     RDKit          3D

 28 31  0  0  0  0  0  0  0  0999 V2000
   -4.7280   15.1690    0.9940 N   0  0  0  0  0  0  0  0  0  0  0  0
   -3.6210   14.7980    0.1230 C   0  0  2  0  0  0  0  0  0  0  0  0
   -2.2630   15.1640    0.7320 C   0  0  2  0  0  0  0  0  0  0  0  0
   -3.8340   15.5700   -1.1020 N   0  0  0  0  0  0  0  0  0  0  0  0
   -2.6910   15.5320   -2.0470 C   0  0  0  0  0  0  0  0  0  0  0  0
   -1.2470   14.9390   -0.3230 C   0  0  1  0  0  0  0  0  0  0  0  0
   -1.7440   14.2830    1.7830 N   0  0  0  0  0  0  0  0  0  0  0  0
   -1.3810   15.7830   -1.4360 N   0  0  0  0  0  0  0  0  0  0  0  0
   -0.0500   15.1690    0.4400 N   0  0  0  0  0  0  0  0  0  0  0  0
   -0.2990   14.2260    1.5060 C   0  0  0  0  0  0  0  0  0  0  0  0
   -0.1770   15.6230   -2.2520 C   0  0  0  0  0  0  0  0  0  0  0  0
   -0.0140   16.4950   -3.4570 C   0  0  0  0  0  0  0  0  0  0  0  0
    1.1150   17.0580   -4.0060 C   0  0  0  0  0  0  0  0  0  0  0  0
   -1.1160   16.7730   -4.1460 N   0  0  0  0  0  0  0  0  0  0  0  0
   -0.8060   17.4990   -5.1630 C   0  0  0  0  0  0  0  0  0  0  0  0
    0.8050   17.9770   -5.4080 S   0  0  0  0  0  0  0  0  0  0  0  0
   -1.8920   17.7800   -6.0130 C   0  0  0  0  0  0  0  0  0  0  0  0
   -2.5130   16.3930   -5.7760 C   0  0  0  0  0  0  0  0  0  0  0  0
   -3.6740   16.1670   -6.0690 O   0  0  0  0  0  0  0  0  0  0  0  0
   -1.6720   15.3380   -5.1790 N   0  0  0  0  0  0  0  0  0  0  0  0
   -2.3970   14.1410   -4.7260 C   0  0  0  0  0  0  0  0  0  0  0  0
   -0.2180   15.0560   -5.4320 C   0  0  0  0  0  0  0  0  0  0  0  0
   -1.6380   13.2570   -3.7100 C   0  0  0  0  0  0  0  0  0  0  0  0
    0.5490   14.3560   -4.3240 C   0  0  0  0  0  0  0  0  0  0  0  0
   -0.1490   13.0360   -4.0420 C   0  0  0  0  0  0  0  0  0  0  0  0
    0.5850   12.2800   -2.9490 C   0  0  0  0  0  0  0  0  0  0  0  0
    0.1660   11.0050   -2.8310 O   0  0  0  0  0  0  0  0  0  0  0  0
    1.4680   12.6950   -2.2250 O   0  0  0  0  0  0  0  0  0  0  0  0
  2  1  1  1
  2  3  1  0
  2  4  1  0
  4  5  1  0
  3  6  1  0
  3  7  1  1
  5  8  1  0
  6  8  1  0
  6  9  1  1
  7 10  1  0
  9 10  1  0
  8 11  1  0
 11 12  1  0
 12 13  2  0
 12 14  1  0
 14 15  2  0
 13 16  1  0
 15 16  1  0
 15 17  1  0
 17 18  1  0
 18 19  2  0
 18 20  1  0
 20 21  1  0
 20 22  1  0
 21 23  1  0
 22 24  1  0
 23 25  1  0
 24 25  1  0
 25 26  1  0
 26 27  1  0
 26 28  2  0
M  END
