mac-x0496-mac-x0138
     RDKit          3D

 23 25  0  0  0  0  0  0  0  0999 V2000
   -9.9730   17.8250    4.7710 C   0  0  0  0  0  0  0  0  0  0  0  0
   -9.9750   16.8010    3.7090 C   0  0  0  0  0  0  0  0  0  0  0  0
  -10.9710   16.6580    2.8230 N   0  0  0  0  0  0  0  0  0  0  0  0
   -8.9520   15.9110    3.5600 N   0  0  0  0  0  0  0  0  0  0  0  0
  -10.5490   15.5940    2.0230 O   0  0  0  0  0  0  0  0  0  0  0  0
   -9.3440   15.2000    2.5290 C   0  0  0  0  0  0  0  0  0  0  0  0
   -8.6650   14.0590    1.8700 C   0  0  0  0  0  0  0  0  0  0  0  0
   -7.2300   14.2910    1.8600 N   0  0  0  0  0  0  0  0  0  0  0  0
   -6.6030   14.4200    0.6500 C   0  0  0  0  0  0  0  0  0  0  0  0
   -7.1620   14.9880   -0.2910 O   0  0  0  0  0  0  0  0  0  0  0  0
   -5.2060   13.8090    0.5020 C   0  0  2  0  0  0  0  0  0  0  0  0
   -4.1100   14.0750    1.5440 C   0  0  0  0  0  0  0  0  0  0  0  0
   -4.7800   13.6640   -0.9510 C   0  0  0  0  0  0  0  0  0  0  0  0
   -2.7980   14.8380    1.2920 C   0  0  1  0  0  0  0  0  0  0  0  0
   -3.6130   14.4260   -1.5860 C   0  0  1  0  0  0  0  0  0  0  0  0
   -4.0740   14.6700   -3.0680 C   0  0  0  0  0  0  0  0  0  0  0  0
   -1.5420   14.0390    1.1950 N   0  0  0  0  0  0  0  0  0  0  0  0
   -2.8310   15.9780    0.2730 C   0  0  0  0  0  0  0  0  0  0  0  0
   -3.1880   15.7350   -1.1370 N   0  0  0  0  0  0  0  0  0  0  0  0
   -2.2720   13.7100   -1.6170 C   0  0  0  0  0  0  0  0  0  0  0  0
   -3.1300   15.3820   -3.8660 O   0  0  0  0  0  0  0  0  0  0  0  0
   -1.5400   14.6420   -2.4530 N   0  0  0  0  0  0  0  0  0  0  0  0
   -1.9950   15.9290   -1.9840 C   0  0  0  0  0  0  0  0  0  0  0  0
  1  2  1  0
  2  3  2  0
  2  4  1  0
  3  5  1  0
  4  6  2  0
  5  6  1  0
  6  7  1  0
  7  8  1  0
  8  9  1  0
  9 10  2  0
 11  9  1  6
 11 12  1  0
 11 13  1  0
 12 14  1  0
 13 15  1  0
 15 16  1  6
 14 17  1  6
 14 18  1  0
 15 19  1  0
 18 19  1  0
 15 20  1  0
 16 21  1  0
 20 22  1  0
 19 23  1  0
 22 23  1  0
M  END
