mac-x0282-diamond-x0969_0_A
     RDKit          3D

 14 16  0  0  0  0  0  0  0  0999 V2000
   -6.3630   14.8930    1.8700 N   0  0  0  0  0  0  0  0  0  0  0  0
   -5.7780   15.2060    0.5630 C   0  0  2  0  0  0  0  0  0  0  0  0
   -6.7950   14.9700   -0.4470 N   0  0  0  0  0  0  0  0  0  0  0  0
   -4.5650   14.4540    0.1740 C   0  0  1  0  0  0  0  0  0  0  0  0
   -3.7260   14.9730   -1.0370 C   0  0  0  0  0  0  0  0  0  0  0  0
   -3.7360   14.5900    1.3760 N   0  0  0  0  0  0  0  0  0  0  0  0
   -6.5440   13.6160   -0.8900 N   0  0  0  0  0  0  0  0  0  0  0  0
   -5.3460   13.1810   -0.1280 C   0  0  0  0  0  0  0  0  0  0  0  0
   -2.3460   14.8620   -0.4530 C   0  0  0  0  0  0  0  0  0  0  0  0
   -2.4280   14.6620    0.9170 C   0  0  0  0  0  0  0  0  0  0  0  0
   -1.0930   14.9280   -1.0540 C   0  0  0  0  0  0  0  0  0  0  0  0
   -1.4100   14.5440    1.7350 N   0  0  0  0  0  0  0  0  0  0  0  0
    0.0130   14.8030   -0.2130 C   0  0  0  0  0  0  0  0  0  0  0  0
   -0.2090   14.6200    1.1510 C   0  0  0  0  0  0  0  0  0  0  0  0
  2  1  1  1
  2  3  1  0
  2  4  1  0
  4  5  1  6
  4  6  1  0
  3  7  1  0
  4  8  1  0
  7  8  1  0
  5  9  1  0
  6 10  1  0
  9 10  2  0
  9 11  1  0
 10 12  1  0
 11 13  2  0
 12 14  2  0
 13 14  1  0
M  END
