mac-x0178-diamond-x0253_0_A
     RDKit          3D

 24 25  0  0  0  0  0  0  0  0999 V2000
   -0.3640   18.2440   -6.4690 N   0  0  0  0  0  0  0  0  0  0  0  0
   -1.7240   17.6570   -5.6860 S   0  0  0  0  0  0  0  0  0  0  0  0
   -2.6430   17.2480   -6.7230 O   0  0  0  0  0  0  0  0  0  0  0  0
   -2.0420   18.6520   -4.7000 O   0  0  0  0  0  0  0  0  0  0  0  0
   -1.0970   16.2360   -4.8560 C   0  0  0  0  0  0  0  0  0  0  0  0
    0.1360   16.2980   -4.2020 C   0  0  0  0  0  0  0  0  0  0  0  0
   -1.8540   15.0670   -4.8670 C   0  0  0  0  0  0  0  0  0  0  0  0
    0.6130   15.1640   -3.5490 C   0  0  0  0  0  0  0  0  0  0  0  0
   -1.3720   13.9400   -4.2160 C   0  0  0  0  0  0  0  0  0  0  0  0
   -0.1380   13.9800   -3.5550 C   0  0  0  0  0  0  0  0  0  0  0  0
    0.3580   12.7360   -2.8820 C   0  0  0  0  0  0  0  0  0  0  0  0
    1.3110   13.0240   -1.8710 O   0  0  0  0  0  0  0  0  0  0  0  0
   -0.6490   11.9830   -2.2360 O   0  0  0  0  0  0  0  0  0  0  0  0
    0.9680   11.8830   -3.9900 C   0  0  0  0  0  0  0  0  0  0  0  0
    0.3830   12.0080   -5.3370 N   0  0  0  0  0  0  0  0  0  0  0  0
    1.0620   11.6880   -6.4900 C   0  0  0  0  0  0  0  0  0  0  0  0
    2.1770   12.1420   -6.6360 O   0  0  0  0  0  0  0  0  0  0  0  0
    0.4540   10.7630   -7.4920 C   0  0  0  0  0  0  0  0  0  0  0  0
   -0.5260    9.8610   -7.0790 C   0  0  0  0  0  0  0  0  0  0  0  0
    0.8510   10.7840   -8.8370 C   0  0  0  0  0  0  0  0  0  0  0  0
   -1.1180    8.9800   -7.9970 C   0  0  0  0  0  0  0  0  0  0  0  0
    0.2670    9.9110   -9.7540 C   0  0  0  0  0  0  0  0  0  0  0  0
   -2.1730    8.0130   -7.5490 C   0  0  0  0  0  0  0  0  0  0  0  0
   -0.7120    9.0150   -9.3350 C   0  0  0  0  0  0  0  0  0  0  0  0
  2  1  1  0
  2  3  2  0
  2  4  2  0
  2  5  1  0
  5  6  2  0
  5  7  1  0
  6  8  1  0
  7  9  2  0
  8 10  2  0
  9 10  1  0
 10 11  1  0
 11 12  1  0
 11 13  1  0
 11 14  1  0
 14 15  1  0
 15 16  1  0
 16 17  2  0
 16 18  1  0
 18 19  2  0
 18 20  1  0
 19 21  1  0
 20 22  2  0
 21 23  1  0
 21 24  2  0
 22 24  1  0
M  END
