mac-x0437-diamond-x0962_3_A
     RDKit          3D

 16 17  0  0  0  0  0  0  0  0999 V2000
    1.2270   13.0330   -2.2310 O   0  0  0  0  0  0  0  0  0  0  0  0
    1.0880   12.2160   -3.2920 C   0  0  0  0  0  0  0  0  0  0  0  0
    0.6510   11.0850   -3.1690 O   0  0  0  0  0  0  0  0  0  0  0  0
    1.5280   12.8320   -4.6020 C   0  0  0  0  0  0  0  0  0  0  0  0
    0.3520   13.0180   -5.5630 C   0  0  0  0  0  0  0  0  0  0  0  0
   -0.5230   11.8560   -5.6800 N   0  0  0  0  0  0  0  0  0  0  0  0
   -1.6050   11.6990   -4.8580 C   0  0  0  0  0  0  0  0  0  0  0  0
   -0.4810   10.7620   -6.5510 C   0  0  0  0  0  0  0  0  0  0  0  0
   -2.2650   10.6000   -5.1160 N   0  0  0  0  0  0  0  0  0  0  0  0
   -1.5910   10.0110   -6.1490 C   0  0  0  0  0  0  0  0  0  0  0  0
    0.3290   10.2920   -7.6210 C   0  0  0  0  0  0  0  0  0  0  0  0
   -1.9100    8.8050   -6.7810 C   0  0  0  0  0  0  0  0  0  0  0  0
   -0.0270    9.0810   -8.2230 C   0  0  0  0  0  0  0  0  0  0  0  0
    1.5260   10.8900   -8.2170 C   0  0  0  0  0  0  0  0  0  0  0  0
   -1.1180    8.3440   -7.8220 C   0  0  0  0  0  0  0  0  0  0  0  0
    2.1480   11.7880   -7.2770 N   0  0  0  0  0  0  0  0  0  0  0  0
  1  2  1  0
  2  3  2  0
  2  4  1  0
  4  5  1  0
  5  6  1  0
  6  7  1  0
  6  8  1  0
  7  9  2  0
  8 10  2  0
  9 10  1  0
  8 11  1  0
 10 12  1  0
 11 13  2  0
 11 14  1  0
 12 15  2  0
 13 15  1  0
 14 16  1  0
M  END
