mac-x0283-mac-x0510
     RDKit          3D

 14 16  0  0  0  0  0  0  0  0999 V2000
   -6.7490   14.8150    2.4490 N   0  0  0  0  0  0  0  0  0  0  0  0
   -6.5610   14.7890    1.1210 C   0  0  0  0  0  0  0  0  0  0  0  0
   -7.4950   14.4270    0.2420 N   0  0  0  0  0  0  0  0  0  0  0  0
   -5.3550   15.1460    0.4730 C   0  0  0  0  0  0  0  0  0  0  0  0
   -6.9070   14.5350   -1.0020 O   0  0  0  0  0  0  0  0  0  0  0  0
   -5.6190   14.9600   -0.8730 C   0  0  0  0  0  0  0  0  0  0  0  0
   -4.0140   15.6270    0.9390 C   0  0  0  0  0  0  0  0  0  0  0  0
   -4.6820   15.1770   -1.9050 C   0  0  0  0  0  0  0  0  0  0  0  0
   -2.8980   15.2140   -0.0870 C   0  0  1  0  0  0  0  0  0  0  0  0
   -3.3890   15.2860   -1.5420 C   0  0  0  0  0  0  0  0  0  0  0  0
   -1.6260   15.9960   -0.0070 N   0  0  0  0  0  0  0  0  0  0  0  0
   -2.4020   13.8420    0.3700 C   0  0  0  0  0  0  0  0  0  0  0  0
   -1.3200   14.1940    1.3060 N   0  0  0  0  0  0  0  0  0  0  0  0
   -0.5860   15.1130    0.4870 C   0  0  0  0  0  0  0  0  0  0  0  0
  1  2  1  0
  2  3  2  0
  2  4  1  0
  3  5  1  0
  4  6  2  0
  5  6  1  0
  4  7  1  0
  6  8  1  0
  9  7  1  1
  8 10  2  0
  9 10  1  0
  9 11  1  0
  9 12  1  0
 12 13  1  0
 11 14  1  0
 13 14  1  0
M  END
