mac-x0321-diamond-x0950_1_A
     RDKit          3D

 17 17  0  0  0  0  0  0  0  0999 V2000
   -4.3480   15.3600    1.7170 Cl  0  0  0  0  0  0  0  0  0  0  0  0
   -4.3450   15.2570    0.0080 C   0  0  0  0  0  0  0  0  0  0  0  0
   -3.1580   14.9730   -0.6470 C   0  0  0  0  0  0  0  0  0  0  0  0
   -5.5230   15.4550   -0.7090 C   0  0  0  0  0  0  0  0  0  0  0  0
   -3.1390   14.8860   -2.0430 C   0  0  0  0  0  0  0  0  0  0  0  0
   -5.5120   15.3700   -2.0930 C   0  0  0  0  0  0  0  0  0  0  0  0
   -1.8510   14.5780   -2.7190 C   0  0  0  0  0  0  0  0  0  0  0  0
   -4.3240   15.0880   -2.7630 C   0  0  0  0  0  0  0  0  0  0  0  0
   -0.9590   14.0430   -1.8420 O   0  0  0  0  0  0  0  0  0  0  0  0
   -1.6700   14.7880   -3.9070 O   0  0  0  0  0  0  0  0  0  0  0  0
    0.4260   14.3390   -2.0840 C   0  0  0  0  0  0  0  0  0  0  0  0
    1.2300   13.1440   -2.0960 O   0  0  0  0  0  0  0  0  0  0  0  0
    0.8710   12.1990   -3.0060 C   0  0  0  0  0  0  0  0  0  0  0  0
    1.3520   12.5330   -4.4280 C   0  0  2  0  0  0  0  0  0  0  0  0
    0.2480   11.1720   -2.7340 O   0  0  0  0  0  0  0  0  0  0  0  0
    1.0900   13.9680   -4.8540 C   0  0  0  0  0  0  0  0  0  0  0  0
    0.7030   11.6860   -5.3800 O   0  0  0  0  0  0  0  0  0  0  0  0
  1  2  1  0
  2  3  2  0
  2  4  1  0
  3  5  1  0
  4  6  2  0
  5  7  1  0
  5  8  2  0
  6  8  1  0
  7  9  1  0
  7 10  2  0
  9 11  1  0
 11 12  1  0
 12 13  1  0
 13 14  1  0
 13 15  2  0
 14 16  1  6
 14 17  1  0
M  END
