mac-x0190-mac-x0348
     RDKit          3D

 29 32  0  0  0  0  0  0  0  0999 V2000
   -9.3950   14.8650    2.3810 O   0  0  0  0  0  0  0  0  0  0  0  0
   -9.1050   14.1230    1.1990 C   0  0  0  0  0  0  0  0  0  0  0  0
   -7.7200   14.4720    0.8200 C   0  0  0  0  0  0  0  0  0  0  0  0
   -7.3500   14.7330   -0.4770 N   0  0  0  0  0  0  0  0  0  0  0  0
   -6.7000   14.5790    1.6330 N   0  0  0  0  0  0  0  0  0  0  0  0
   -6.0100   15.0270   -0.4800 C   0  0  0  0  0  0  0  0  0  0  0  0
   -5.6330   14.9230    0.8530 C   0  0  0  0  0  0  0  0  0  0  0  0
   -5.1210   15.3640   -1.4930 C   0  0  0  0  0  0  0  0  0  0  0  0
   -4.3090   15.1660    1.2270 C   0  0  0  0  0  0  0  0  0  0  0  0
   -3.7990   15.5980   -1.0910 C   0  0  0  0  0  0  0  0  0  0  0  0
   -3.4060   15.5020    0.2390 C   0  0  0  0  0  0  0  0  0  0  0  0
   -2.7360   15.9450   -2.0530 C   0  0  0  0  0  0  0  0  0  0  0  0
   -2.0020   14.6830   -2.2690 C   0  0  0  0  0  0  0  0  0  0  0  0
   -0.4940   14.7470   -2.1850 C   0  0  0  0  0  0  0  0  0  0  0  0
    0.0340   14.3680   -3.5580 C   0  0  2  0  0  0  0  0  0  0  0  0
    1.2840   13.5110   -3.5280 C   0  0  0  0  0  0  0  0  0  0  0  0
   -0.1200   15.5810   -4.3920 C   0  0  0  0  0  0  0  0  0  0  0  0
    0.9490   12.3960   -2.5820 C   0  0  0  0  0  0  0  0  0  0  0  0
    0.7470   16.5940   -4.6890 C   0  0  0  0  0  0  0  0  0  0  0  0
   -1.3420   15.8630   -5.0460 C   0  0  0  0  0  0  0  0  0  0  0  0
    0.9190   12.5040   -1.3680 O   0  0  0  0  0  0  0  0  0  0  0  0
    0.6330   11.2400   -3.1840 O   0  0  0  0  0  0  0  0  0  0  0  0
    0.0960   17.4780   -5.5000 N   0  0  0  0  0  0  0  0  0  0  0  0
   -1.1910   17.0550   -5.7230 C   0  0  0  0  0  0  0  0  0  0  0  0
   -2.5710   15.1740   -5.1040 C   0  0  0  0  0  0  0  0  0  0  0  0
    0.6850   18.6680   -6.0340 C   0  0  0  0  0  0  0  0  0  0  0  0
   -3.6140   15.7050   -5.8500 C   0  0  0  0  0  0  0  0  0  0  0  0
   -2.2310   17.6050   -6.4620 C   0  0  0  0  0  0  0  0  0  0  0  0
   -3.4410   16.9020   -6.5200 C   0  0  0  0  0  0  0  0  0  0  0  0
  1  2  1  0
  2  3  1  0
  3  4  1  0
  3  5  2  0
  4  6  1  0
  5  7  1  0
  6  7  2  0
  6  8  1  0
  7  9  1  0
  8 10  2  0
  9 11  2  0
 10 11  1  0
 10 12  1  0
 12 13  1  0
 13 14  1  0
 15 14  1  1
 15 16  1  0
 15 17  1  0
 16 18  1  0
 17 19  2  0
 17 20  1  0
 18 21  2  0
 18 22  1  0
 19 23  1  0
 20 24  2  0
 23 24  1  0
 20 25  1  0
 23 26  1  0
 25 27  2  0
 24 28  1  0
 27 29  1  0
 28 29  2  0
M  END
