mac-x0385-diamond-x0900_0_A
     RDKit          3D

 14 15  0  0  0  0  0  0  0  0999 V2000
   -4.1310   15.2430   -2.0420 C   0  0  0  0  0  0  0  0  0  0  0  0
   -3.0590   14.9770   -1.0400 C   0  0  0  0  0  0  0  0  0  0  0  0
   -1.8460   14.5560   -1.4760 C   0  0  0  0  0  0  0  0  0  0  0  0
   -3.1900   15.1300    0.3340 C   0  0  0  0  0  0  0  0  0  0  0  0
   -2.2160   14.8850    1.2120 N   0  0  0  0  0  0  0  0  0  0  0  0
   -0.8440   14.2990   -0.6590 N   0  0  0  0  0  0  0  0  0  0  0  0
   -4.5090   15.6090    0.7530 C   0  0  2  0  0  0  0  0  0  0  0  0
   -1.0880   14.4770    0.6470 C   0  0  0  0  0  0  0  0  0  0  0  0
   -5.5260   14.5190    1.1410 C   0  0  0  0  0  0  0  0  0  0  0  0
   -5.0100   16.1070   -0.5920 C   0  0  0  0  0  0  0  0  0  0  0  0
    0.0010   14.1850    1.5410 C   0  0  0  0  0  0  0  0  0  0  0  0
   -5.8200   15.0570   -1.0730 N   0  0  0  0  0  0  0  0  0  0  0  0
   -6.4910   14.5610   -0.0200 C   0  0  0  0  0  0  0  0  0  0  0  0
   -7.6570   14.2340   -0.0460 O   0  0  0  0  0  0  0  0  0  0  0  0
  1  2  1  0
  2  3  2  0
  2  4  1  0
  4  5  2  0
  3  6  1  0
  7  4  1  6
  5  8  1  0
  6  8  2  0
  7  9  1  0
  7 10  1  0
  8 11  1  0
 10 12  1  0
  9 13  1  0
 12 13  1  0
 13 14  2  0
M  END
