mac-x0282-mac-x0453
     RDKit          3D

 12 13  0  0  0  0  0  0  0  0999 V2000
   -7.2380   13.4790    2.3960 N   0  0  0  0  0  0  0  0  0  0  0  0
   -6.3790   13.3980    1.2190 C   0  0  0  0  0  0  0  0  0  0  0  0
   -5.9030   14.7950    0.8390 C   0  0  0  0  0  0  0  0  0  0  0  0
   -4.4790   14.7920    0.4890 C   0  0  0  0  0  0  0  0  0  0  0  0
   -3.7900   14.7970   -0.7140 C   0  0  0  0  0  0  0  0  0  0  0  0
   -3.5800   14.7770    1.5040 N   0  0  0  0  0  0  0  0  0  0  0  0
   -2.4110   14.7730   -0.3940 C   0  0  0  0  0  0  0  0  0  0  0  0
   -2.3420   14.7620    0.9930 C   0  0  0  0  0  0  0  0  0  0  0  0
   -1.1930   14.7580   -1.0980 C   0  0  0  0  0  0  0  0  0  0  0  0
   -1.2680   14.7390    1.7510 N   0  0  0  0  0  0  0  0  0  0  0  0
   -0.0260   14.7470   -0.3340 C   0  0  0  0  0  0  0  0  0  0  0  0
   -0.1460   14.7420    1.0470 C   0  0  0  0  0  0  0  0  0  0  0  0
  1  2  1  0
  2  3  1  0
  3  4  1  0
  4  5  2  0
  4  6  1  0
  5  7  1  0
  6  8  1  0
  7  8  2  0
  7  9  1  0
  8 10  1  0
  9 11  2  0
 10 12  2  0
 11 12  1  0
M  END
