mac-x0564-mac-x0193
     RDKit          3D

 27 30  0  0  0  0  0  0  0  0999 V2000
    0.7590   13.5760   -2.1640 N   0  0  0  0  0  0  0  0  0  0  0  0
    1.0880   12.7280   -3.1390 C   0  0  0  0  0  0  0  0  0  0  0  0
    2.1090   11.9190   -2.9330 O   0  0  0  0  0  0  0  0  0  0  0  0
   -0.3220   14.1500   -2.7210 C   0  0  0  0  0  0  0  0  0  0  0  0
    0.4300   12.5500   -4.5550 C   0  0  0  0  0  0  0  0  0  0  0  0
   -1.5320   14.4450   -2.1340 C   0  0  0  0  0  0  0  0  0  0  0  0
   -0.1300   14.3800   -4.0120 N   0  0  0  0  0  0  0  0  0  0  0  0
    0.4070   11.3140   -5.3400 N   0  0  0  0  0  0  0  0  0  0  0  0
   -2.5240   14.8980   -2.9720 C   0  0  0  0  0  0  0  0  0  0  0  0
   -1.1330   14.8500   -4.7180 C   0  0  0  0  0  0  0  0  0  0  0  0
   -1.9910   14.3590   -0.8460 O   0  0  0  0  0  0  0  0  0  0  0  0
    0.9030   11.3500   -6.6350 C   0  0  0  0  0  0  0  0  0  0  0  0
   -2.3600   15.1190   -4.3010 N   0  0  0  0  0  0  0  0  0  0  0  0
   -3.3050   14.7330   -0.8920 C   0  0  0  0  0  0  0  0  0  0  0  0
   -3.6640   15.0440   -2.1840 C   0  0  0  0  0  0  0  0  0  0  0  0
    1.8940   11.9840   -6.8970 O   0  0  0  0  0  0  0  0  0  0  0  0
    0.1850   10.5850   -7.5550 N   0  0  0  0  0  0  0  0  0  0  0  0
   -4.9660   15.4070   -2.4470 C   0  0  0  0  0  0  0  0  0  0  0  0
   -4.1920   14.7950    0.1780 C   0  0  0  0  0  0  0  0  0  0  0  0
   -5.8900   15.4840   -1.4210 C   0  0  0  0  0  0  0  0  0  0  0  0
   -5.5030   15.1840   -0.1230 C   0  0  0  0  0  0  0  0  0  0  0  0
    0.7990   10.1050   -8.8100 C   0  0  0  0  0  0  0  0  0  0  0  0
    1.3720    8.6910   -8.6270 C   0  0  0  0  0  0  0  0  0  0  0  0
   -0.1540   10.1550  -10.0180 C   0  0  0  0  0  0  0  0  0  0  0  0
    2.0490    8.1390   -9.8840 C   0  0  0  0  0  0  0  0  0  0  0  0
    0.5310    9.6490  -11.2880 C   0  0  0  0  0  0  0  0  0  0  0  0
    1.1500    8.2590  -11.1140 C   0  0  0  0  0  0  0  0  0  0  0  0
  1  2  2  3
  2  3  1  0
  1  4  1  0
  2  5  1  0
  4  6  1  0
  4  7  2  0
  5  8  1  0
  6  9  2  0
  7 10  1  0
  6 11  1  0
  8 12  1  0
  9 13  1  0
 10 13  2  0
 11 14  1  0
  9 15  1  0
 14 15  2  0
 12 16  2  0
 12 17  1  0
 15 18  1  0
 14 19  1  0
 18 20  2  0
 19 21  2  0
 20 21  1  0
 17 22  1  0
 22 23  1  0
 22 24  1  0
 23 25  1  0
 24 26  1  0
 25 27  1  0
 26 27  1  0
M  END
