mac-x0228-mac-x0415
     RDKit          3D

 26 29  0  0  0  0  0  0  0  0999 V2000
   -1.9700   15.9970   -2.7480 O   0  0  0  0  0  0  0  0  0  0  0  0
   -2.7060   14.9010   -3.0320 C   0  0  0  0  0  0  0  0  0  0  0  0
   -2.4010   14.1570   -4.0490 N   0  0  0  0  0  0  0  0  0  0  0  0
   -3.8340   14.8070   -2.1280 C   0  0  0  0  0  0  0  0  0  0  0  0
   -3.7800   14.6050   -0.7460 C   0  0  0  0  0  0  0  0  0  0  0  0
   -5.0410   14.9870   -2.8020 C   0  0  0  0  0  0  0  0  0  0  0  0
   -1.5090   14.9940   -4.5760 C   0  0  0  0  0  0  0  0  0  0  0  0
   -5.0090   14.6020   -0.0870 C   0  0  0  0  0  0  0  0  0  0  0  0
   -6.2400   14.9840   -2.1350 C   0  0  0  0  0  0  0  0  0  0  0  0
   -0.1410   15.0430   -4.3050 C   0  0  0  0  0  0  0  0  0  0  0  0
   -2.0010   15.9230   -5.3920 C   0  0  0  0  0  0  0  0  0  0  0  0
   -3.7810   15.7850   -5.9040 Br  0  0  0  0  0  0  0  0  0  0  0  0
   -6.2020   14.7930   -0.7850 C   0  0  0  0  0  0  0  0  0  0  0  0
   -5.3210   14.4220    1.3460 C   0  0  0  0  0  0  0  0  0  0  0  0
    0.7860   14.1000   -4.2110 C   0  0  0  0  0  0  0  0  0  0  0  0
    0.3720   16.4170   -4.1170 C   0  0  1  0  0  0  0  0  0  0  0  0
   -1.1790   17.0330   -5.8870 C   0  0  0  0  0  0  0  0  0  0  0  0
    0.8320   12.6390   -4.3140 C   0  0  0  0  0  0  0  0  0  0  0  0
   -7.3210   14.7720   -0.0050 O   0  0  0  0  0  0  0  0  0  0  0  0
   -6.8430   14.2790    1.2670 C   0  0  0  0  0  0  0  0  0  0  0  0
    1.9430   14.9120   -3.9700 C   0  0  0  0  0  0  0  0  0  0  0  0
    1.7840   16.1860   -3.9370 N   0  0  0  0  0  0  0  0  0  0  0  0
   -0.0090   17.2900   -5.2730 C   0  0  0  0  0  0  0  0  0  0  0  0
    0.7210   12.0650   -2.9230 C   0  0  0  0  0  0  0  0  0  0  0  0
    0.0870   10.8790   -2.8480 O   0  0  0  0  0  0  0  0  0  0  0  0
    1.1600   12.6320   -1.9350 O   0  0  0  0  0  0  0  0  0  0  0  0
  1  2  1  0
  2  3  2  3
  2  4  1  0
  4  5  2  0
  4  6  1  0
  3  7  1  0
  5  8  1  0
  6  9  2  0
  7 10  1  0
  7 11  2  0
 11 12  1  0
  8 13  2  0
  9 13  1  0
  8 14  1  0
 10 15  2  0
 10 16  1  0
 11 17  1  0
 15 18  1  0
 13 19  1  0
 14 20  1  0
 19 20  1  0
 15 21  1  0
 16 22  1  0
 21 22  2  0
 16 23  1  6
 17 23  2  0
 18 24  1  0
 24 25  1  0
 24 26  2  0
M  END
