mac-x0193-mac-x0398
     RDKit          3D

 27 28  0  0  0  0  0  0  0  0999 V2000
    0.3670   10.6530   -3.1330 O   0  0  0  0  0  0  0  0  0  0  0  0
    0.5900   11.9630   -3.3720 C   0  0  0  0  0  0  0  0  0  0  0  0
    0.4510   12.7050   -2.3440 N   0  0  0  0  0  0  0  0  0  0  0  0
    0.9560   12.3440   -4.8060 C   0  0  0  0  0  0  0  0  0  0  0  0
    0.3220   11.4570   -5.7720 N   0  0  0  0  0  0  0  0  0  0  0  0
    0.6590   14.1480   -2.4620 C   0  0  0  0  0  0  0  0  0  0  0  0
    0.8860   11.2280   -6.9980 C   0  0  0  0  0  0  0  0  0  0  0  0
   -0.6260   14.9810   -2.2700 C   0  0  0  0  0  0  0  0  0  0  0  0
    2.0230   11.5510   -7.2940 O   0  0  0  0  0  0  0  0  0  0  0  0
   -0.0150   10.5850   -7.8220 N   0  0  0  0  0  0  0  0  0  0  0  0
   -1.8690   14.2550   -2.4300 O   0  0  0  0  0  0  0  0  0  0  0  0
   -3.0150   15.0010   -2.6080 C   0  0  0  0  0  0  0  0  0  0  0  0
    0.3310    9.6730   -8.9140 C   0  0  0  0  0  0  0  0  0  0  0  0
   -3.3240   15.6140   -3.6230 O   0  0  0  0  0  0  0  0  0  0  0  0
    1.5130    8.7550   -8.5980 C   0  0  0  0  0  0  0  0  0  0  0  0
    0.5590   10.4380  -10.2160 C   0  0  0  0  0  0  0  0  0  0  0  0
   -3.9040   14.9790   -1.4110 C   0  0  0  0  0  0  0  0  0  0  0  0
    2.1640    8.2120   -9.8830 C   0  0  0  0  0  0  0  0  0  0  0  0
    0.6340    9.4930  -11.4190 C   0  0  0  0  0  0  0  0  0  0  0  0
   -5.3000   15.0900   -1.4880 C   0  0  0  0  0  0  0  0  0  0  0  0
   -3.3040   14.8370   -0.1540 C   0  0  0  0  0  0  0  0  0  0  0  0
   -5.9310   15.2340   -2.6900 O   0  0  0  0  0  0  0  0  0  0  0  0
    1.1680    8.1140  -11.0300 C   0  0  0  0  0  0  0  0  0  0  0  0
   -6.0780   15.0490   -0.3290 C   0  0  0  0  0  0  0  0  0  0  0  0
   -4.0890   14.7990    1.0030 C   0  0  0  0  0  0  0  0  0  0  0  0
   -5.4810   14.9010    0.9190 C   0  0  0  0  0  0  0  0  0  0  0  0
   -6.2710   14.8560    2.0680 N   0  0  0  0  0  0  0  0  0  0  0  0
  1  2  1  0
  2  3  2  3
  2  4  1  0
  4  5  1  0
  3  6  1  0
  5  7  1  0
  6  8  1  0
  7  9  2  0
  7 10  1  0
  8 11  1  0
 11 12  1  0
 10 13  1  0
 12 14  2  0
 13 15  1  0
 13 16  1  0
 12 17  1  0
 15 18  1  0
 16 19  1  0
 17 20  2  0
 17 21  1  0
 20 22  1  0
 18 23  1  0
 19 23  1  0
 20 24  1  0
 21 25  2  0
 24 26  2  0
 25 26  1  0
 26 27  1  0
M  END
