mac-x0231-diamond-x0685_0_A
     RDKit          3D

 26 28  0  0  0  0  0  0  0  0999 V2000
    0.5370   10.8220   -3.4600 O   0  0  0  0  0  0  0  0  0  0  0  0
    1.2740   11.9420   -3.3220 C   0  0  0  0  0  0  0  0  0  0  0  0
    1.4910   12.3950   -2.2100 O   0  0  0  0  0  0  0  0  0  0  0  0
    1.7360   12.5280   -4.6360 C   0  0  0  0  0  0  0  0  0  0  0  0
    1.2890   13.9410   -4.6290 C   0  0  0  0  0  0  0  0  0  0  0  0
   -0.1190   14.1990   -4.5050 C   0  0  0  0  0  0  0  0  0  0  0  0
    2.1570   14.8760   -4.5950 N   0  0  0  0  0  0  0  0  0  0  0  0
   -0.5220   15.5200   -4.4880 C   0  0  0  0  0  0  0  0  0  0  0  0
    1.7290   16.1570   -4.5050 N   0  0  0  0  0  0  0  0  0  0  0  0
   -1.0100   13.1510   -4.3540 C   0  0  0  0  0  0  0  0  0  0  0  0
    0.4580   16.5750   -4.6820 C   0  0  0  0  0  0  0  0  0  0  0  0
   -1.8270   15.8290   -4.2470 C   0  0  0  0  0  0  0  0  0  0  0  0
   -2.3160   13.4580   -4.1000 C   0  0  0  0  0  0  0  0  0  0  0  0
    0.1460   17.7240   -4.9670 O   0  0  0  0  0  0  0  0  0  0  0  0
   -2.6760   14.7880   -4.0150 C   0  0  0  0  0  0  0  0  0  0  0  0
   -3.9340   15.0590   -3.5800 C   0  0  0  0  0  0  0  0  0  0  0  0
   -4.6130   15.1550   -2.6350 C   0  0  0  0  0  0  0  0  0  0  0  0
   -4.9970   15.0760   -1.2780 C   0  0  0  0  0  0  0  0  0  0  0  0
   -4.0110   15.2150   -0.2910 C   0  0  0  0  0  0  0  0  0  0  0  0
   -6.2810   14.8490   -0.8870 C   0  0  0  0  0  0  0  0  0  0  0  0
   -4.3720   15.1130    1.0470 C   0  0  0  0  0  0  0  0  0  0  0  0
   -6.6510   14.7450    0.4020 N   0  0  0  0  0  0  0  0  0  0  0  0
   -5.7060   14.8730    1.3550 C   0  0  0  0  0  0  0  0  0  0  0  0
   -6.0660   14.7650    2.6910 N   0  0  0  0  0  0  0  0  0  0  0  0
   -7.4790   14.8410    3.0490 C   0  0  0  0  0  0  0  0  0  0  0  0
   -8.0820   13.4470    3.1010 C   0  0  0  0  0  0  0  0  0  0  0  0
  1  2  1  0
  2  3  2  0
  2  4  1  0
  4  5  1  0
  5  6  1  0
  5  7  2  0
  6  8  2  0
  7  9  1  0
  6 10  1  0
  8 11  1  0
  9 11  1  0
  8 12  1  0
 10 13  2  0
 11 14  2  0
 12 15  2  0
 13 15  1  0
 15 16  1  0
 16 17  3  0
 17 18  1  0
 18 19  2  0
 18 20  1  0
 19 21  1  0
 20 22  2  0
 21 23  2  0
 22 23  1  0
 23 24  1  0
 24 25  1  0
 25 26  1  0
M  END
