mac-x0347-mac-x0379
     RDKit          3D

 17 18  0  0  0  0  0  0  0  0999 V2000
    1.1910   14.6160   -3.6280 O   0  0  0  0  0  0  0  0  0  0  0  0
    0.5150   14.3180   -2.5040 C   0  0  0  0  0  0  0  0  0  0  0  0
    1.0570   13.8640   -1.5100 O   0  0  0  0  0  0  0  0  0  0  0  0
   -0.9450   14.5400   -2.5210 C   0  0  0  0  0  0  0  0  0  0  0  0
   -1.6950   14.4940   -1.3470 C   0  0  0  0  0  0  0  0  0  0  0  0
   -1.6230   14.7980   -3.7140 C   0  0  0  0  0  0  0  0  0  0  0  0
   -3.0720   14.6910   -1.4100 C   0  0  0  0  0  0  0  0  0  0  0  0
   -2.9680   14.9970   -3.7870 N   0  0  0  0  0  0  0  0  0  0  0  0
   -0.9940   14.8710   -4.9170 O   0  0  0  0  0  0  0  0  0  0  0  0
   -3.6650   14.9320   -2.6160 C   0  0  0  0  0  0  0  0  0  0  0  0
   -3.9460   14.6550   -0.2610 C   0  0  0  0  0  0  0  0  0  0  0  0
   -5.1600   15.1190   -2.5770 C   0  0  0  0  0  0  0  0  0  0  0  0
   -3.6710   15.3710    0.8950 C   0  0  0  0  0  0  0  0  0  0  0  0
   -5.1120   13.8760   -0.3370 C   0  0  0  0  0  0  0  0  0  0  0  0
   -4.5530   15.3150    1.9620 C   0  0  0  0  0  0  0  0  0  0  0  0
   -5.9930   13.8210    0.7300 C   0  0  0  0  0  0  0  0  0  0  0  0
   -5.7120   14.5440    1.8800 C   0  0  0  0  0  0  0  0  0  0  0  0
  1  2  1  0
  2  3  2  0
  2  4  1  0
  4  5  2  0
  4  6  1  0
  5  7  1  0
  6  8  2  0
  6  9  1  0
  7 10  2  0
  8 10  1  0
  7 11  1  0
 10 12  1  0
 11 13  2  0
 11 14  1  0
 13 15  1  0
 14 16  2  0
 15 17  2  0
 16 17  1  0
M  END
