mac-x0565-mac-x0453
     RDKit          3D

 14 15  0  0  0  0  0  0  0  0999 V2000
   -5.5890   14.9510    0.7840 O   0  0  0  0  0  0  0  0  0  0  0  0
   -6.1060   15.0200   -0.4600 C   0  0  0  0  0  0  0  0  0  0  0  0
   -7.2940   15.0980   -0.7270 O   0  0  0  0  0  0  0  0  0  0  0  0
   -5.9400   13.7450    1.4450 C   0  0  0  0  0  0  0  0  0  0  0  0
   -6.9710   14.0440    2.4200 N   0  0  0  0  0  0  0  0  0  0  0  0
   -5.0280   14.9770   -1.4810 C   0  0  0  0  0  0  0  0  0  0  0  0
   -3.6880   14.9140   -1.0590 C   0  0  0  0  0  0  0  0  0  0  0  0
   -5.3260   14.9960   -2.8570 C   0  0  0  0  0  0  0  0  0  0  0  0
   -2.7060   14.8710   -2.0320 C   0  0  0  0  0  0  0  0  0  0  0  0
   -4.3070   14.9530   -3.8140 C   0  0  0  0  0  0  0  0  0  0  0  0
   -3.0110   14.8940   -3.3700 C   0  0  0  0  0  0  0  0  0  0  0  0
   -1.3610   14.8050   -1.8190 O   0  0  0  0  0  0  0  0  0  0  0  0
   -1.9080   14.8520   -4.1640 O   0  0  0  0  0  0  0  0  0  0  0  0
   -0.8620   14.8690   -3.1720 C   0  0  0  0  0  0  0  0  0  0  0  0
  1  2  1  0
  2  3  2  0
  1  4  1  0
  4  5  1  0
  2  6  1  0
  6  7  2  0
  6  8  1  0
  7  9  1  0
  8 10  2  0
  9 11  2  0
 10 11  1  0
  9 12  1  0
 11 13  1  0
 12 14  1  0
 13 14  1  0
M  END
