mac-x0333-mac-x0402
     RDKit          3D

 11 12  0  0  0  0  0  0  0  0999 V2000
   -2.6200   15.3340   -2.7330 O   0  0  0  0  0  0  0  0  0  0  0  0
   -3.4660   15.1510   -1.6750 C   0  0  0  0  0  0  0  0  0  0  0  0
   -2.9820   14.9800   -0.3660 C   0  0  0  0  0  0  0  0  0  0  0  0
   -4.8290   15.1380   -1.9430 C   0  0  0  0  0  0  0  0  0  0  0  0
   -5.6780   14.9410   -0.8740 C   0  0  0  0  0  0  0  0  0  0  0  0
   -3.8690   14.7850    0.7000 C   0  0  0  0  0  0  0  0  0  0  0  0
   -5.2280   14.7620    0.4280 C   0  0  0  0  0  0  0  0  0  0  0  0
   -7.0470   14.8960   -0.9650 O   0  0  0  0  0  0  0  0  0  0  0  0
   -6.3180   14.5630    1.3090 N   0  0  0  0  0  0  0  0  0  0  0  0
   -7.4690   14.5770    0.3860 C   0  0  0  0  0  0  0  0  0  0  0  0
   -6.3560   15.0370    2.6400 N   0  0  0  0  0  0  0  0  0  0  0  0
  1  2  1  0
  2  3  2  0
  2  4  1  0
  4  5  2  0
  3  6  1  0
  5  7  1  0
  6  7  2  0
  5  8  1  0
  7  9  1  0
  8 10  1  0
  9 10  1  0
  9 11  1  0
M  END
