mac-x0397-diamond-x0253_0_A
     RDKit          3D

 28 30  0  0  0  0  0  0  0  0999 V2000
   -6.3790   15.2280   -2.4800 Cl  0  0  0  0  0  0  0  0  0  0  0  0
   -4.9140   14.9810   -1.6500 C   0  0  0  0  0  0  0  0  0  0  0  0
   -5.0520   14.8960   -0.3080 C   0  0  0  0  0  0  0  0  0  0  0  0
   -3.6640   14.8660   -2.2860 C   0  0  0  0  0  0  0  0  0  0  0  0
   -6.1740   14.9760    0.4960 N   0  0  0  0  0  0  0  0  0  0  0  0
   -3.8870   14.7010    0.3150 C   0  0  0  0  0  0  0  0  0  0  0  0
   -2.3510   14.6330   -1.7140 C   0  0  0  0  0  0  0  0  0  0  0  0
   -1.2030   14.3870   -0.7540 C   0  0  0  0  0  0  0  0  0  0  0  0
   -5.8110   14.8470    1.7390 C   0  0  0  0  0  0  0  0  0  0  0  0
   -4.1340   14.6240    1.9850 S   0  0  0  0  0  0  0  0  0  0  0  0
   -2.6830   14.5800   -0.3350 C   0  0  0  0  0  0  0  0  0  0  0  0
   -6.6760   14.8880    2.7600 N   0  0  0  0  0  0  0  0  0  0  0  0
    0.1240   15.0210   -1.0760 C   0  0  0  0  0  0  0  0  0  0  0  0
    1.1600   13.9260   -1.1580 C   0  0  0  0  0  0  0  0  0  0  0  0
    1.3160   13.6560   -2.5470 N   0  0  0  0  0  0  0  0  0  0  0  0
    0.9670   12.6210   -3.1830 C   0  0  0  0  0  0  0  0  0  0  0  0
    0.3690   11.4900   -2.7130 O   0  0  0  0  0  0  0  0  0  0  0  0
    1.2500   12.6740   -4.6510 C   0  0  0  0  0  0  0  0  0  0  0  0
    0.4360   11.8200   -5.4620 N   0  0  0  0  0  0  0  0  0  0  0  0
    1.0720   11.5600   -6.6250 C   0  0  0  0  0  0  0  0  0  0  0  0
    2.1610   12.0490   -6.7910 O   0  0  0  0  0  0  0  0  0  0  0  0
    0.4320   10.6610   -7.6210 C   0  0  0  0  0  0  0  0  0  0  0  0
   -0.5460    9.7430   -7.2270 C   0  0  0  0  0  0  0  0  0  0  0  0
    0.8120   10.7300   -8.9680 C   0  0  0  0  0  0  0  0  0  0  0  0
   -1.1470    8.8980   -8.1660 C   0  0  0  0  0  0  0  0  0  0  0  0
    0.2210    9.8920   -9.9080 C   0  0  0  0  0  0  0  0  0  0  0  0
   -2.1960    7.9210   -7.7260 C   0  0  0  0  0  0  0  0  0  0  0  0
   -0.7570    8.9790   -9.5110 C   0  0  0  0  0  0  0  0  0  0  0  0
  1  2  1  0
  2  3  2  0
  2  4  1  0
  3  5  1  0
  3  6  1  0
  4  7  2  0
  7  8  1  0
  5  9  2  0
  6 10  1  0
  9 10  1  0
  6 11  2  0
  7 11  1  0
  9 12  1  0
  8 13  1  0
 13 14  1  0
 14 15  1  0
 15 16  2  3
 16 17  1  0
 16 18  1  0
 18 19  1  0
 19 20  1  0
 20 21  2  0
 20 22  1  0
 22 23  2  0
 22 24  1  0
 23 25  1  0
 24 26  2  0
 25 27  1  0
 25 28  2  0
 26 28  1  0
M  END
