mac-x0341-mac-x0306
     RDKit          3D

 16 18  0  0  0  0  0  0  0  0999 V2000
   -6.8800   15.2090    3.4240 N   0  0  0  0  0  0  0  0  0  0  0  0
   -6.2740   15.0130    2.2390 C   0  0  0  0  0  0  0  0  0  0  0  0
   -5.0080   15.3340    2.0190 N   0  0  0  0  0  0  0  0  0  0  0  0
   -7.0560   14.4900    1.2790 N   0  0  0  0  0  0  0  0  0  0  0  0
   -6.7750   14.9120    0.0470 C   0  0  0  0  0  0  0  0  0  0  0  0
   -4.5500   15.0230    0.7760 C   0  0  0  0  0  0  0  0  0  0  0  0
   -7.6110   15.3600   -0.7300 O   0  0  0  0  0  0  0  0  0  0  0  0
   -5.3710   14.7870   -0.2220 C   0  0  0  0  0  0  0  0  0  0  0  0
   -3.1110   14.9120    0.5780 C   0  0  0  0  0  0  0  0  0  0  0  0
   -2.5970   14.8190   -0.6750 C   0  0  0  0  0  0  0  0  0  0  0  0
   -4.9470   14.3570   -1.5040 C   0  0  0  0  0  0  0  0  0  0  0  0
   -3.5100   14.8280   -1.8940 C   0  0  0  0  0  0  0  0  0  0  0  0
   -5.1110   12.9090   -1.3820 N   0  0  0  0  0  0  0  0  0  0  0  0
   -6.1010   14.5930   -2.4000 N   0  0  0  0  0  0  0  0  0  0  0  0
   -7.0980   13.8080   -1.8250 C   0  0  0  0  0  0  0  0  0  0  0  0
   -6.4980   12.7830   -1.1890 C   0  0  0  0  0  0  0  0  0  0  0  0
  1  2  1  0
  2  3  2  0
  2  4  1  0
  4  5  1  0
  3  6  1  0
  5  7  2  0
  5  8  1  0
  6  8  2  0
  6  9  1  0
  9 10  2  0
  8 11  1  0
 10 12  1  0
 11 12  1  0
 11 13  1  0
 11 14  1  0
 14 15  1  0
 13 16  1  0
 15 16  2  0
M  END
