mac-x0337-diamond-x0910_0_A
     RDKit          3D

 16 17  0  0  0  0  0  0  0  0999 V2000
   -5.8360    9.1080   -2.2230 C   0  0  0  0  0  0  0  0  0  0  0  0
   -5.3710   10.4730   -1.8140 C   0  0  0  0  0  0  0  0  0  0  0  0
   -6.1370   11.2400   -0.9260 C   0  0  0  0  0  0  0  0  0  0  0  0
   -4.1680   10.9820   -2.3170 C   0  0  0  0  0  0  0  0  0  0  0  0
   -3.7360   12.2480   -1.9360 C   0  0  0  0  0  0  0  0  0  0  0  0
   -5.7080   12.5060   -0.5430 C   0  0  0  0  0  0  0  0  0  0  0  0
   -4.5130   13.0000   -1.0500 C   0  0  0  0  0  0  0  0  0  0  0  0
   -3.9550   14.5950   -0.5790 S   0  0  2  0  0  0  0  0  0  0  0  0
   -2.8400   14.9660   -1.4880 N   0  0  0  0  0  0  0  0  0  0  0  0
   -3.8710   14.6720    0.8480 O   0  0  0  0  0  0  0  0  0  0  0  0
   -5.1500   15.7410   -0.8950 N   0  0  0  0  0  0  0  0  0  0  0  0
   -1.6570   14.8730   -0.7000 C   0  0  0  0  0  0  0  0  0  0  0  0
   -1.7480   14.8210    0.6360 N   0  0  0  0  0  0  0  0  0  0  0  0
   -0.4070   14.8460   -1.2070 N   0  0  0  0  0  0  0  0  0  0  0  0
   -0.4570   14.7620    0.9770 N   0  0  0  0  0  0  0  0  0  0  0  0
    0.3280   14.7810   -0.1340 C   0  0  0  0  0  0  0  0  0  0  0  0
  1  2  1  0
  2  3  2  0
  2  4  1  0
  4  5  2  0
  3  6  1  0
  5  7  1  0
  6  7  2  0
  7  8  1  0
  8  9  2  0
  8 10  2  0
  8 11  1  6
  9 12  1  0
 12 13  2  0
 12 14  1  0
 13 15  1  0
 14 16  2  0
 15 16  1  0
M  END
