mac-x0148-mac-x0439
     RDKit          3D

 31 36  0  0  0  0  0  0  0  0999 V2000
   -3.0820   16.1370   -5.7210 Cl  0  0  0  0  0  0  0  0  0  0  0  0
   -1.6160   16.9960   -5.4800 C   0  0  0  0  0  0  0  0  0  0  0  0
   -0.7370   16.7610   -4.2810 C   0  0  1  0  0  0  0  0  0  0  0  0
   -1.2710   17.9200   -6.3810 C   0  0  0  0  0  0  0  0  0  0  0  0
   -0.3970   15.4930   -3.5580 C   0  0  0  0  0  0  0  0  0  0  0  0
    0.6860   17.1120   -4.6290 C   0  0  0  0  0  0  0  0  0  0  0  0
   -0.0470   18.6790   -6.2590 C   0  0  0  0  0  0  0  0  0  0  0  0
    0.9470   15.3410   -3.5050 C   0  0  0  0  0  0  0  0  0  0  0  0
    1.5960   16.3130   -4.1750 N   0  0  0  0  0  0  0  0  0  0  0  0
    0.9350   18.3210   -5.4230 C   0  0  0  0  0  0  0  0  0  0  0  0
    1.7160   14.2540   -2.7930 C   0  0  0  0  0  0  0  0  0  0  0  0
    2.9640   14.6390   -2.4640 O   0  0  0  0  0  0  0  0  0  0  0  0
    1.2610   13.1250   -2.5280 N   0  0  0  0  0  0  0  0  0  0  0  0
   -0.0640   12.9950   -3.0250 C   0  0  1  0  0  0  0  0  0  0  0  0
   -0.4600   11.5670   -3.2940 C   0  0  0  0  0  0  0  0  0  0  0  0
   -1.1630   13.8250   -2.5310 N   0  0  0  0  0  0  0  0  0  0  0  0
   -2.3940   13.5850   -3.3470 C   0  0  1  0  0  0  0  0  0  0  0  0
   -1.1580   11.6120   -4.6210 C   0  0  0  0  0  0  0  0  0  0  0  0
   -1.3300   14.2250   -1.1850 C   0  0  0  0  0  0  0  0  0  0  0  0
   -3.0230   14.8620   -3.9070 C   0  0  0  0  0  0  0  0  0  0  0  0
   -2.2360   12.7030   -4.6110 C   0  0  2  0  0  0  0  0  0  0  0  0
   -0.2790   14.0990   -0.2860 N   0  0  0  0  0  0  0  0  0  0  0  0
   -2.4600   14.7370   -0.6650 C   0  0  0  0  0  0  0  0  0  0  0  0
   -2.0660   13.7310   -5.6900 C   0  0  0  0  0  0  0  0  0  0  0  0
   -3.0130   14.7430   -5.3490 O   0  0  0  0  0  0  0  0  0  0  0  0
   -0.4320   14.4140    1.0440 C   0  0  0  0  0  0  0  0  0  0  0  0
   -2.5260   15.0830    0.7710 C   0  0  0  0  0  0  0  0  0  0  0  0
   -3.7630   15.0760   -1.1320 C   0  0  0  0  0  0  0  0  0  0  0  0
   -1.4810   14.8910    1.6130 N   0  0  0  0  0  0  0  0  0  0  0  0
   -3.6870   15.5620    1.1140 N   0  0  0  0  0  0  0  0  0  0  0  0
   -4.4130   15.5470   -0.0630 C   0  0  0  0  0  0  0  0  0  0  0  0
  1  2  1  0
  2  3  1  0
  2  4  2  0
  3  5  1  6
  3  6  1  0
  4  7  1  0
  5  8  2  0
  6  9  2  0
  8  9  1  0
  6 10  1  0
  7 10  2  0
  8 11  1  0
 11 12  1  0
 11 13  2  3
 14 13  1  1
 14 15  1  0
 14 16  1  0
 16 17  1  0
 15 18  1  0
 16 19  1  0
 17 20  1  6
 17 21  1  0
 21 18  1  1
 19 22  1  0
 19 23  2  0
 21 24  1  0
 20 25  1  0
 24 25  1  0
 22 26  1  0
 23 27  1  0
 23 28  1  0
 26 29  2  0
 27 29  1  0
 27 30  2  0
 28 31  2  0
 30 31  1  0
M  END
