mac-x0402-mac-x0588
     RDKit          3D

 21 24  0  0  0  0  0  0  0  0999 V2000
   -1.2900   15.6680   -2.6280 C   0  0  0  0  0  0  0  0  0  0  0  0
   -2.5190   14.9050   -2.0030 C   0  0  2  0  0  0  0  0  0  0  0  0
   -3.9010   15.5380   -2.2970 C   0  0  0  0  0  0  0  0  0  0  0  0
   -1.2080   16.1310   -4.1010 C   0  0  1  0  0  0  0  0  0  0  0  0
   -2.2700   14.7330   -0.4290 C   0  0  2  0  0  0  0  0  0  0  0  0
   -1.7110   17.4790   -4.2860 O   0  0  0  0  0  0  0  0  0  0  0  0
    0.2090   16.1160   -4.7080 C   0  0  0  0  0  0  0  0  0  0  0  0
   -3.5790   14.7360    0.3680 C   0  0  0  0  0  0  0  0  0  0  0  0
   -5.1100   14.9260   -1.5660 C   0  0  2  0  0  0  0  0  0  0  0  0
   -1.4140   15.7720    0.2210 N   0  0  0  0  0  0  0  0  0  0  0  0
   -1.3340   13.5450   -0.2720 C   0  0  0  0  0  0  0  0  0  0  0  0
    0.4570   17.5330   -5.1760 C   0  0  0  0  0  0  0  0  0  0  0  0
   -0.9420   18.0740   -5.3370 C   0  0  0  0  0  0  0  0  0  0  0  0
   -6.2440   15.8210   -1.4680 N   0  0  0  0  0  0  0  0  0  0  0  0
   -4.8340   14.8220   -0.1500 C   0  0  0  0  0  0  0  0  0  0  0  0
   -3.7540   14.6570    2.0580 S   0  0  0  0  0  0  0  0  0  0  0  0
   -0.0060   14.1410   -0.3630 N   0  0  0  0  0  0  0  0  0  0  0  0
   -0.2040   15.0990    0.6780 C   0  0  0  0  0  0  0  0  0  0  0  0
   -5.4690   14.7540    1.9350 C   0  0  0  0  0  0  0  0  0  0  0  0
   -5.9050   14.8290    0.7210 N   0  0  0  0  0  0  0  0  0  0  0  0
   -6.3120   14.7590    2.9910 N   0  0  0  0  0  0  0  0  0  0  0  0
  2  1  1  1
  2  3  1  0
  4  1  1  1
  2  5  1  0
  4  6  1  0
  4  7  1  0
  5  8  1  0
  3  9  1  0
  5 10  1  0
  5 11  1  6
  7 12  1  0
  6 13  1  0
 12 13  1  0
  9 14  1  1
  8 15  2  0
  9 15  1  0
  8 16  1  0
 11 17  1  0
 10 18  1  0
 17 18  1  0
 16 19  1  0
 15 20  1  0
 19 20  2  0
 19 21  1  0
M  END
