mac-x0282-diamond-x0864_0_A
     RDKit          3D

 22 24  0  0  0  0  0  0  0  0999 V2000
    1.5330   11.7310   -7.0100 O   0  0  0  0  0  0  0  0  0  0  0  0
    0.5080   11.2420   -6.5610 C   0  0  0  0  0  0  0  0  0  0  0  0
   -0.0690   11.6950   -5.3980 N   0  0  0  0  0  0  0  0  0  0  0  0
   -0.1490   10.1140   -7.2430 C   0  0  0  0  0  0  0  0  0  0  0  0
    0.5620   12.8630   -4.8070 C   0  0  0  0  0  0  0  0  0  0  0  0
   -1.2720   11.2020   -4.9240 C   0  0  0  0  0  0  0  0  0  0  0  0
   -1.2930    9.6240   -6.7480 C   0  0  0  0  0  0  0  0  0  0  0  0
    0.6900   12.7300   -3.3090 C   0  0  0  0  0  0  0  0  0  0  0  0
   -2.1660    8.1920   -7.5620 Br  0  0  0  0  0  0  0  0  0  0  0  0
   -1.8860   10.1960   -5.5610 C   0  0  0  0  0  0  0  0  0  0  0  0
    0.6430   11.4700   -2.7990 O   0  0  0  0  0  0  0  0  0  0  0  0
    0.8330   13.8090   -2.6180 N   0  0  0  0  0  0  0  0  0  0  0  0
    0.9350   13.6680   -1.1830 C   0  0  0  0  0  0  0  0  0  0  0  0
   -0.3070   14.1190   -0.4880 C   0  0  0  0  0  0  0  0  0  0  0  0
   -1.4070   14.5010   -1.2430 C   0  0  0  0  0  0  0  0  0  0  0  0
   -0.4140   14.1540    0.9130 C   0  0  0  0  0  0  0  0  0  0  0  0
   -2.5560   14.8820   -0.5670 C   0  0  0  0  0  0  0  0  0  0  0  0
   -1.5030   14.5190    1.6290 N   0  0  0  0  0  0  0  0  0  0  0  0
   -3.8430   15.3150   -0.9550 C   0  0  0  0  0  0  0  0  0  0  0  0
   -2.5260   14.8620    0.8260 C   0  0  0  0  0  0  0  0  0  0  0  0
   -4.5570   15.5370    0.1900 C   0  0  0  0  0  0  0  0  0  0  0  0
   -3.7500   15.2600    1.2600 N   0  0  0  0  0  0  0  0  0  0  0  0
  1  2  2  0
  2  3  1  0
  2  4  1  0
  3  5  1  0
  3  6  1  0
  4  7  2  0
  5  8  1  0
  7  9  1  0
  6 10  2  0
  7 10  1  0
  8 11  1  0
  8 12  2  3
 12 13  1  0
 13 14  1  0
 14 15  2  0
 14 16  1  0
 15 17  1  0
 16 18  2  0
 17 19  1  0
 17 20  2  0
 18 20  1  0
 19 21  2  0
 20 22  1  0
 21 22  1  0
M  END
