mac-x0345-diamond-x0128_0_A
     RDKit          3D

 18 19  0  0  0  0  0  0  0  0999 V2000
   -8.1640   14.0880    0.4710 C   0  0  0  0  0  0  0  0  0  0  0  0
   -6.8340   14.5960    0.0290 C   0  0  0  0  0  0  0  0  0  0  0  0
   -6.6600   14.6500   -1.3080 N   0  0  0  0  0  0  0  0  0  0  0  0
   -5.8580   14.9810    0.9350 C   0  0  0  0  0  0  0  0  0  0  0  0
   -6.1090   14.9070    2.3430 O   0  0  0  0  0  0  0  0  0  0  0  0
   -4.6270   15.4480    0.4230 C   0  0  0  0  0  0  0  0  0  0  0  0
   -5.5060   15.0900   -1.7960 C   0  0  0  0  0  0  0  0  0  0  0  0
   -5.4170   15.1080   -3.1880 N   0  0  0  0  0  0  0  0  0  0  0  0
   -7.4400   15.1720    2.8540 C   0  0  0  0  0  0  0  0  0  0  0  0
   -4.4560   15.5000   -0.9750 C   0  0  0  0  0  0  0  0  0  0  0  0
   -8.4480   15.2950    2.1740 O   0  0  0  0  0  0  0  0  0  0  0  0
   -7.4120   15.2940    4.2390 N   0  0  0  0  0  0  0  0  0  0  0  0
   -8.2750   16.0030    5.1420 C   0  0  0  0  0  0  0  0  0  0  0  0
   -8.9870   17.1320    4.7170 C   0  0  0  0  0  0  0  0  0  0  0  0
   -8.4680   15.6380    6.4800 C   0  0  0  0  0  0  0  0  0  0  0  0
   -9.8220   17.8730    5.4930 N   0  0  0  0  0  0  0  0  0  0  0  0
   -9.3230   16.3830    7.3030 C   0  0  0  0  0  0  0  0  0  0  0  0
   -9.9720   17.4830    6.7720 C   0  0  0  0  0  0  0  0  0  0  0  0
  1  2  1  0
  2  3  2  0
  2  4  1  0
  4  5  1  0
  4  6  2  0
  3  7  1  0
  7  8  1  0
  5  9  1  0
  6 10  1  0
  7 10  2  0
  9 11  2  0
  9 12  1  0
 12 13  1  0
 13 14  2  0
 13 15  1  0
 14 16  1  0
 15 17  2  0
 16 18  2  0
 17 18  1  0
M  END
