mac-x0228-diamond-x0574_0_A
     RDKit          3D

 23 26  0  0  0  0  0  0  0  0999 V2000
   -1.3250   14.1530   -2.0790 O   0  0  0  0  0  0  0  0  0  0  0  0
   -2.3670   14.1330   -2.9370 C   0  0  0  0  0  0  0  0  0  0  0  0
   -2.1710   14.0620   -4.1380 O   0  0  0  0  0  0  0  0  0  0  0  0
   -3.6970   14.2390   -2.2590 C   0  0  0  0  0  0  0  0  0  0  0  0
   -4.0970   13.4630   -1.1320 C   0  0  0  0  0  0  0  0  0  0  0  0
   -4.5850   15.1870   -2.7950 C   0  0  0  0  0  0  0  0  0  0  0  0
   -5.3690   13.7070   -0.5880 C   0  0  0  0  0  0  0  0  0  0  0  0
   -5.8530   15.4160   -2.2290 C   0  0  0  0  0  0  0  0  0  0  0  0
   -6.2070   14.6830   -1.1290 C   0  0  0  0  0  0  0  0  0  0  0  0
   -6.1480   13.1300    0.5720 C   0  0  0  0  0  0  0  0  0  0  0  0
   -7.3660   14.7930   -0.3920 O   0  0  0  0  0  0  0  0  0  0  0  0
   -6.6070   14.5450    0.8270 C   0  0  2  0  0  0  0  0  0  0  0  0
   -5.1750   14.9310    0.5900 C   0  0  0  0  0  0  0  0  0  0  0  0
   -7.2570   14.7740    2.2100 C   0  0  0  0  0  0  0  0  0  0  0  0
   -4.2340   14.4070    1.4380 C   0  0  0  0  0  0  0  0  0  0  0  0
   -4.7550   15.7270   -0.4770 C   0  0  0  0  0  0  0  0  0  0  0  0
   -2.9010   14.6370    1.2200 C   0  0  0  0  0  0  0  0  0  0  0  0
   -3.3960   15.9600   -0.7100 C   0  0  0  0  0  0  0  0  0  0  0  0
   -2.4780   15.3950    0.1550 C   0  0  0  0  0  0  0  0  0  0  0  0
   -1.9370   14.1430    1.9930 N   0  0  0  0  0  0  0  0  0  0  0  0
   -0.8070   14.4680    1.5610 C   0  0  0  0  0  0  0  0  0  0  0  0
   -0.7570   15.4490    0.1630 S   0  0  0  0  0  0  0  0  0  0  0  0
    0.2280   14.0380    2.2140 N   0  0  0  0  0  0  0  0  0  0  0  0
  1  2  1  0
  2  3  2  0
  2  4  1  0
  4  5  2  0
  4  6  1  0
  5  7  1  0
  6  8  2  0
  7  9  2  0
  8  9  1  0
  7 10  1  0
  9 11  1  0
 10 12  1  0
 11 12  1  0
 12 13  1  0
 12 14  1  1
 13 15  2  0
 13 16  1  0
 15 17  1  0
 16 18  2  0
 17 19  2  0
 18 19  1  0
 17 20  1  0
 20 21  2  0
 19 22  1  0
 21 22  1  0
 21 23  1  0
M  END
