mac-x0344-mac-x0437
     RDKit          3D

 14 15  0  0  0  0  0  0  0  0999 V2000
    1.4070   13.4310   -4.9480 O   0  0  0  0  0  0  0  0  0  0  0  0
    1.1390   12.8440   -3.7630 C   0  0  0  0  0  0  0  0  0  0  0  0
    1.5620   13.2290   -2.6960 O   0  0  0  0  0  0  0  0  0  0  0  0
    0.2480   11.6310   -3.9260 C   0  0  0  0  0  0  0  0  0  0  0  0
    0.4390   10.6720   -3.1980 O   0  0  0  0  0  0  0  0  0  0  0  0
   -0.8040   11.5890   -4.8350 N   0  0  0  0  0  0  0  0  0  0  0  0
   -1.2000   10.5750   -5.7250 C   0  0  0  0  0  0  0  0  0  0  0  0
   -1.6900   12.6460   -4.9810 C   0  0  0  0  0  0  0  0  0  0  0  0
   -0.6980    9.3000   -6.0380 C   0  0  0  0  0  0  0  0  0  0  0  0
   -2.3420   11.0310   -6.3780 C   0  0  0  0  0  0  0  0  0  0  0  0
   -2.6350   12.3300   -5.9080 C   0  0  0  0  0  0  0  0  0  0  0  0
   -1.3440    8.5080   -6.9900 C   0  0  0  0  0  0  0  0  0  0  0  0
   -2.9810   10.2140   -7.3220 C   0  0  0  0  0  0  0  0  0  0  0  0
   -2.4800    8.9560   -7.6260 C   0  0  0  0  0  0  0  0  0  0  0  0
  1  2  1  0
  2  3  2  0
  2  4  1  0
  4  5  2  0
  4  6  1  0
  6  7  1  0
  6  8  1  0
  7  9  2  0
  7 10  1  0
  8 11  2  0
 10 11  1  0
  9 12  1  0
 10 13  2  0
 12 14  2  0
 13 14  1  0
M  END
