mac-x0437-mac-x0415
     RDKit          3D

 24 27  0  0  0  0  0  0  0  0999 V2000
    0.9980   12.9560   -2.0350 O   0  0  0  0  0  0  0  0  0  0  0  0
    0.9870   12.2750   -3.1840 C   0  0  0  0  0  0  0  0  0  0  0  0
    0.6400   11.1020   -3.1860 O   0  0  0  0  0  0  0  0  0  0  0  0
    1.4370   13.0320   -4.4350 C   0  0  1  0  0  0  0  0  0  0  0  0
    0.9000   12.4750   -5.7480 C   0  0  0  0  0  0  0  0  0  0  0  0
    1.2510   14.5290   -4.6150 C   0  0  2  0  0  0  0  0  0  0  0  0
   -0.1910   11.5630   -5.7580 N   0  0  0  0  0  0  0  0  0  0  0  0
    1.7700   15.4200   -3.5280 C   0  0  0  0  0  0  0  0  0  0  0  0
   -0.0330   15.1980   -5.0820 C   0  0  2  0  0  0  0  0  0  0  0  0
   -1.2950   11.4640   -4.9560 C   0  0  0  0  0  0  0  0  0  0  0  0
   -0.2290   10.5980   -6.6810 C   0  0  0  0  0  0  0  0  0  0  0  0
    1.3020   16.7220   -4.0420 N   0  0  0  0  0  0  0  0  0  0  0  0
   -0.1050   16.4030   -4.2120 C   0  0  1  0  0  0  0  0  0  0  0  0
   -1.3720   14.5000   -5.1990 C   0  0  0  0  0  0  0  0  0  0  0  0
   -2.0520   10.4500   -5.3340 N   0  0  0  0  0  0  0  0  0  0  0  0
   -1.3870    9.9030   -6.4110 C   0  0  0  0  0  0  0  0  0  0  0  0
    0.6580   10.3000   -7.7060 C   0  0  0  0  0  0  0  0  0  0  0  0
   -1.0070   17.3960   -4.8160 C   0  0  0  0  0  0  0  0  0  0  0  0
   -2.4890   15.4920   -5.5680 C   0  0  1  0  0  0  0  0  0  0  0  0
   -3.9950   14.9720   -4.4690 Br  0  0  0  0  0  0  0  0  0  0  0  0
   -1.6990    8.8070   -7.2240 C   0  0  0  0  0  0  0  0  0  0  0  0
    0.3410    9.2140   -8.5060 C   0  0  0  0  0  0  0  0  0  0  0  0
   -2.1210   16.9680   -5.4450 C   0  0  0  0  0  0  0  0  0  0  0  0
   -0.8190    8.4760   -8.2690 C   0  0  0  0  0  0  0  0  0  0  0  0
  1  2  1  0
  2  3  2  0
  2  4  1  0
  4  5  1  6
  4  6  1  0
  5  7  1  0
  6  8  1  1
  6  9  1  0
  7 10  1  0
  7 11  1  0
  8 12  1  0
  9 13  1  0
 12 13  1  0
  9 14  1  1
 10 15  2  0
 11 16  2  0
 15 16  1  0
 11 17  1  0
 13 18  1  6
 14 19  1  0
 19 20  1  1
 16 21  1  0
 17 22  2  0
 18 23  2  0
 19 23  1  0
 21 24  2  0
 22 24  1  0
M  END
