mac-x0263-diamond-x0711_0_A
     RDKit          3D

 22 23  0  0  0  0  0  0  0  0999 V2000
  -11.4180   14.2750    2.3220 O   0  0  0  0  0  0  0  0  0  0  0  0
  -10.7090   15.3850    2.5840 C   0  0  0  0  0  0  0  0  0  0  0  0
  -11.1080   16.1880    3.4130 O   0  0  0  0  0  0  0  0  0  0  0  0
   -9.4380   15.5190    1.7820 C   0  0  0  0  0  0  0  0  0  0  0  0
   -9.2890   14.5430    0.6090 C   0  0  0  0  0  0  0  0  0  0  0  0
   -7.9290   14.6820   -0.0060 C   0  0  0  0  0  0  0  0  0  0  0  0
   -7.6040   14.8230   -1.3610 N   0  0  0  0  0  0  0  0  0  0  0  0
   -6.8600   14.6900    0.6940 N   0  0  0  0  0  0  0  0  0  0  0  0
   -6.2100   14.9310   -1.4720 C   0  0  0  0  0  0  0  0  0  0  0  0
   -5.8390   14.8440   -0.1990 C   0  0  0  0  0  0  0  0  0  0  0  0
   -5.2210   15.0890   -2.4950 C   0  0  0  0  0  0  0  0  0  0  0  0
   -4.5710   14.9070    0.1320 C   0  0  0  0  0  0  0  0  0  0  0  0
   -4.6000   14.7830    1.5070 C   0  0  0  0  0  0  0  0  0  0  0  0
   -3.8230   15.1540   -2.1220 C   0  0  0  0  0  0  0  0  0  0  0  0
   -3.5110   15.0620   -0.7630 C   0  0  0  0  0  0  0  0  0  0  0  0
   -2.7140   15.3140   -3.0790 N   0  0  0  0  0  0  0  0  0  0  0  0
   -4.6650   13.5250    1.9520 N   0  0  0  0  0  0  0  0  0  0  0  0
   -4.6790   15.7700    2.1760 O   0  0  0  0  0  0  0  0  0  0  0  0
   -1.1510   14.6020   -3.1690 S   0  0  0  0  0  0  0  0  0  0  0  0
   -1.3710   13.3870   -4.4490 C   0  0  0  0  0  0  0  0  0  0  0  0
   -0.1770   15.5280   -3.6940 O   0  0  0  0  0  0  0  0  0  0  0  0
   -0.8630   13.9010   -1.9420 O   0  0  0  0  0  0  0  0  0  0  0  0
  1  2  1  0
  2  3  2  0
  2  4  1  0
  4  5  1  0
  5  6  1  0
  6  7  1  0
  6  8  2  0
  7  9  1  0
  8 10  1  0
  9 10  2  0
  9 11  1  0
 10 12  1  0
 12 13  1  0
 11 14  2  0
 12 15  2  0
 14 15  1  0
 14 16  1  0
 13 17  1  0
 13 18  2  0
 19 16  1  0
 19 20  1  0
 19 21  2  0
 19 22  2  0
M  END
