mac-x0567-diamond-x0371_0_A
     RDKit          3D

 23 26  0  0  0  0  0  0  0  0999 V2000
    0.2830   14.2900   -0.0280 N   0  0  0  0  0  0  0  0  0  0  0  0
   -1.0070   14.4200    0.3390 C   0  0  0  0  0  0  0  0  0  0  0  0
   -1.4250   14.4050    1.6390 N   0  0  0  0  0  0  0  0  0  0  0  0
   -2.1520   14.5850   -0.4060 C   0  0  0  0  0  0  0  0  0  0  0  0
   -2.7650   14.5430    1.7850 N   0  0  0  0  0  0  0  0  0  0  0  0
   -3.2040   14.6480    0.5230 C   0  0  0  0  0  0  0  0  0  0  0  0
   -2.4260   14.6950   -1.8590 C   0  0  0  0  0  0  0  0  0  0  0  0
   -4.6480   14.8220    0.0740 C   0  0  2  0  0  0  0  0  0  0  0  0
   -3.6230   15.6010   -2.0560 C   0  0  0  0  0  0  0  0  0  0  0  0
   -4.6400   15.6840   -1.1660 C   0  0  0  0  0  0  0  0  0  0  0  0
   -5.4680   15.2710    1.2190 N   0  0  0  0  0  0  0  0  0  0  0  0
   -5.4290   13.5770   -0.4010 C   0  0  0  0  0  0  0  0  0  0  0  0
   -6.3190   14.1120    1.4470 C   0  0  2  0  0  0  0  0  0  0  0  0
   -6.7960   13.8360    0.1180 N   0  0  0  0  0  0  0  0  0  0  0  0
   -7.3020   14.2310    2.6520 C   0  0  0  0  0  0  0  0  0  0  0  0
   -8.6030   14.8050    2.4580 N   0  0  0  0  0  0  0  0  0  0  0  0
   -9.1110   15.7250    3.3620 C   0  0  0  0  0  0  0  0  0  0  0  0
   -9.8160   16.6430    2.9730 O   0  0  0  0  0  0  0  0  0  0  0  0
   -8.7770   15.5560    4.7790 C   0  0  0  0  0  0  0  0  0  0  0  0
   -8.1500   14.4260    5.2410 O   0  0  0  0  0  0  0  0  0  0  0  0
   -9.0010   16.4090    5.8490 C   0  0  0  0  0  0  0  0  0  0  0  0
   -8.4890   15.7680    7.0070 C   0  0  0  0  0  0  0  0  0  0  0  0
   -7.9800   14.5670    6.5850 C   0  0  0  0  0  0  0  0  0  0  0  0
  1  2  1  0
  2  3  1  0
  2  4  2  0
  3  5  1  0
  4  6  1  0
  5  6  2  0
  4  7  1  0
  6  8  1  0
  7  9  1  0
  8 10  1  6
  9 10  2  0
  8 11  1  0
  8 12  1  0
 11 13  1  0
 12 14  1  0
 13 14  1  0
 13 15  1  1
 15 16  1  0
 16 17  1  0
 17 18  2  0
 17 19  1  0
 19 20  1  0
 19 21  2  0
 21 22  1  0
 20 23  1  0
 22 23  2  0
M  END
