mac-x0142-mac-x0397
     RDKit          3D

 22 26  0  0  0  0  0  0  0  0999 V2000
   -4.8460   14.9500   -2.4720 Cl  0  0  0  0  0  0  0  0  0  0  0  0
   -3.9360   14.9040   -1.0270 C   0  0  0  0  0  0  0  0  0  0  0  0
   -2.4850   14.8530   -0.7740 C   0  0  0  0  0  0  0  0  0  0  0  0
   -4.5660   14.9030    0.1970 C   0  0  0  0  0  0  0  0  0  0  0  0
   -2.3670   14.8460    0.6290 C   0  0  0  0  0  0  0  0  0  0  0  0
   -1.2260   14.8100   -1.4690 C   0  0  0  0  0  0  0  0  0  0  0  0
   -3.5940   14.8740    1.1190 N   0  0  0  0  0  0  0  0  0  0  0  0
   -5.8400   14.9150    0.7030 N   0  0  0  0  0  0  0  0  0  0  0  0
   -0.9900   14.7950   -2.8490 N   0  0  0  0  0  0  0  0  0  0  0  0
   -0.1010   14.7880   -0.6950 N   0  0  0  0  0  0  0  0  0  0  0  0
   -1.2790   14.8170    1.3960 N   0  0  0  0  0  0  0  0  0  0  0  0
   -5.7580   14.8760    2.0080 C   0  0  0  0  0  0  0  0  0  0  0  0
   -4.1530   14.8750    2.6970 S   0  0  0  0  0  0  0  0  0  0  0  0
   -6.7820   14.8380    2.8900 N   0  0  0  0  0  0  0  0  0  0  0  0
   -2.0420   14.3170   -3.7370 C   0  0  0  0  0  0  0  0  0  0  0  0
    0.3810   14.9590   -3.3280 C   0  0  0  0  0  0  0  0  0  0  0  0
   -0.1910   14.8010    0.6470 C   0  0  0  0  0  0  0  0  0  0  0  0
    0.7710   13.7040   -4.0960 C   0  0  0  0  0  0  0  0  0  0  0  0
   -1.6140   13.1090   -4.5830 C   0  0  0  0  0  0  0  0  0  0  0  0
    2.2390   13.4130   -4.3360 C   0  0  0  0  0  0  0  0  0  0  0  0
    1.4840   12.6100   -3.3220 C   0  0  0  0  0  0  0  0  0  0  0  0
   -0.2140   13.2780   -5.1620 C   0  0  0  0  0  0  0  0  0  0  0  0
  1  2  1  0
  2  3  1  0
  2  4  2  0
  3  5  2  0
  3  6  1  0
  4  7  1  0
  5  7  1  0
  4  8  1  0
  6  9  1  0
  6 10  2  0
  5 11  1  0
  8 12  2  0
  7 13  1  0
 12 13  1  0
 12 14  1  0
  9 15  1  0
  9 16  1  0
 10 17  1  0
 11 17  2  0
 18 16  1  0
 15 19  1  0
 18 20  1  0
 18 21  1  0
 20 21  1  0
 18 22  1  0
 19 22  1  0
M  END
