mac-x0188-mac-x0496
     RDKit          3D

 28 30  0  0  0  0  0  0  0  0999 V2000
    1.5460   13.3750   -4.7660 C   0  0  0  0  0  0  0  0  0  0  0  0
    0.2240   13.5680   -4.1300 C   0  0  0  0  0  0  0  0  0  0  0  0
   -0.8410   13.4030   -4.9470 O   0  0  0  0  0  0  0  0  0  0  0  0
   -0.2170   13.8920   -2.8490 C   0  0  0  0  0  0  0  0  0  0  0  0
    0.6140   14.1480   -1.7200 C   0  0  0  0  0  0  0  0  0  0  0  0
   -1.9900   13.6120   -4.2140 N   0  0  0  0  0  0  0  0  0  0  0  0
   -1.6310   13.9070   -2.9480 C   0  0  0  0  0  0  0  0  0  0  0  0
    1.2170   15.1910   -1.6240 O   0  0  0  0  0  0  0  0  0  0  0  0
    0.6980   13.1680   -0.7750 O   0  0  0  0  0  0  0  0  0  0  0  0
   -2.7500   14.1550   -2.0110 C   0  0  0  0  0  0  0  0  0  0  0  0
   -3.7500   14.9460   -2.4810 C   0  0  0  0  0  0  0  0  0  0  0  0
   -2.8680   13.6210   -0.7210 C   0  0  0  0  0  0  0  0  0  0  0  0
   -3.4750   15.4730   -3.8020 C   0  0  0  0  0  0  0  0  0  0  0  0
   -4.9210   15.2030   -1.7470 C   0  0  0  0  0  0  0  0  0  0  0  0
   -4.0340   13.8630    0.0520 C   0  0  0  0  0  0  0  0  0  0  0  0
   -2.4640   16.0760   -4.1030 O   0  0  0  0  0  0  0  0  0  0  0  0
   -4.4400   15.1960   -4.6670 O   0  0  0  0  0  0  0  0  0  0  0  0
   -5.0890   14.6410   -0.4710 C   0  0  0  0  0  0  0  0  0  0  0  0
   -6.4210   14.9090    0.2080 C   0  0  0  0  0  0  0  0  0  0  0  0
   -6.7390   14.5430    1.5190 N   0  0  0  0  0  0  0  0  0  0  0  0
   -7.2820   15.4200   -0.4970 O   0  0  0  0  0  0  0  0  0  0  0  0
   -8.1300   14.1220    1.8180 C   0  0  0  0  0  0  0  0  0  0  0  0
   -8.9690   15.1950    2.4500 C   0  0  0  0  0  0  0  0  0  0  0  0
  -10.1850   15.5080    1.8750 O   0  0  0  0  0  0  0  0  0  0  0  0
   -8.7190   15.9170    3.5190 N   0  0  0  0  0  0  0  0  0  0  0  0
   -9.8300   16.7190    3.6140 C   0  0  0  0  0  0  0  0  0  0  0  0
  -10.7500   16.5210    2.6650 N   0  0  0  0  0  0  0  0  0  0  0  0
   -9.9750   17.7150    4.6900 C   0  0  0  0  0  0  0  0  0  0  0  0
  1  2  1  0
  2  3  1  0
  2  4  2  0
  4  5  1  0
  3  6  1  0
  4  7  1  0
  6  7  2  0
  5  8  2  0
  5  9  1  0
  7 10  1  0
 10 11  2  0
 10 12  1  0
 11 13  1  0
 11 14  1  0
 12 15  2  0
 13 16  2  0
 13 17  1  0
 14 18  2  0
 15 18  1  0
 18 19  1  0
 19 20  1  0
 19 21  2  0
 20 22  1  0
 22 23  1  0
 23 24  1  0
 23 25  2  0
 25 26  1  0
 24 27  1  0
 26 27  2  0
 26 28  1  0
M  END
