mac-x0411-mac-x0319
     RDKit          3D

 21 22  0  0  0  0  0  0  0  0999 V2000
    0.8080    9.1200   -7.9030 Cl  0  0  0  0  0  0  0  0  0  0  0  0
   -0.5290    9.5630   -6.9090 C   0  0  0  0  0  0  0  0  0  0  0  0
   -0.6070   10.7880   -6.2180 C   0  0  0  0  0  0  0  0  0  0  0  0
   -1.5650    8.6270   -6.8190 C   0  0  0  0  0  0  0  0  0  0  0  0
    0.3780   11.7570   -6.2690 O   0  0  0  0  0  0  0  0  0  0  0  0
   -1.7630   11.0270   -5.4430 C   0  0  0  0  0  0  0  0  0  0  0  0
   -2.6910    8.8870   -6.0490 C   0  0  0  0  0  0  0  0  0  0  0  0
   -2.0210   12.4700   -4.5430 Cl  0  0  0  0  0  0  0  0  0  0  0  0
    1.4670   11.6710   -5.3130 C   0  0  0  0  0  0  0  0  0  0  0  0
   -2.7880   10.0890   -5.3630 C   0  0  0  0  0  0  0  0  0  0  0  0
    1.0350   12.3450   -3.9770 C   0  0  2  0  0  0  0  0  0  0  0  0
    2.1530   12.5610   -2.9920 N   0  0  0  0  0  0  0  0  0  0  0  0
    0.0740   11.4260   -3.4180 O   0  0  0  0  0  0  0  0  0  0  0  0
    0.4380   13.7520   -4.2130 C   0  0  0  0  0  0  0  0  0  0  0  0
    1.7020   12.8100   -1.8710 O   0  0  0  0  0  0  0  0  0  0  0  0
    1.2080   14.9330   -4.0530 C   0  0  0  0  0  0  0  0  0  0  0  0
   -0.9030   13.9140   -4.6010 C   0  0  0  0  0  0  0  0  0  0  0  0
    0.6280   16.1890   -4.2770 C   0  0  0  0  0  0  0  0  0  0  0  0
   -1.4650   15.1720   -4.8200 C   0  0  0  0  0  0  0  0  0  0  0  0
    1.3120   17.3540   -4.1320 O   0  0  0  0  0  0  0  0  0  0  0  0
   -0.6950   16.3070   -4.6580 C   0  0  0  0  0  0  0  0  0  0  0  0
  1  2  1  0
  2  3  2  0
  2  4  1  0
  3  5  1  0
  3  6  1  0
  4  7  2  0
  6  8  1  0
  5  9  1  0
  6 10  2  0
  7 10  1  0
  9 11  1  0
 11 12  1  0
 11 13  1  1
 11 14  1  0
 12 15  2  0
 14 16  2  0
 14 17  1  0
 16 18  1  0
 17 19  2  0
 18 20  1  0
 18 21  2  0
 19 21  1  0
M  END
