mac-x0116-diamond-x0290_0_A
     RDKit          3D

 21 23  0  0  0  0  0  0  0  0999 V2000
   -5.8090   14.3530    1.8450 C   0  0  1  0  0  0  0  0  0  0  0  0
   -5.2320   15.0790    0.7310 N   0  0  0  0  0  0  0  0  0  0  0  0
   -6.1890   15.0940   -0.2360 C   0  0  0  0  0  0  0  0  0  0  0  0
   -7.0480   15.0090    2.2960 N   0  0  0  0  0  0  0  0  0  0  0  0
   -6.2570   12.9620    1.6760 C   0  0  0  0  0  0  0  0  0  0  0  0
   -8.2360   14.7540    1.4790 C   0  0  0  0  0  0  0  0  0  0  0  0
   -6.2030   12.3800    0.4400 O   0  0  0  0  0  0  0  0  0  0  0  0
   -6.7850   12.0910    2.5970 C   0  0  0  0  0  0  0  0  0  0  0  0
   -4.0010   14.9250    0.0510 C   0  0  0  0  0  0  0  0  0  0  0  0
   -6.7110   14.0960   -0.6990 O   0  0  0  0  0  0  0  0  0  0  0  0
   -7.0870   10.9250    1.8980 C   0  0  0  0  0  0  0  0  0  0  0  0
   -6.7150   11.1410    0.5920 C   0  0  0  0  0  0  0  0  0  0  0  0
   -4.2860   14.9890   -1.2770 N   0  0  0  0  0  0  0  0  0  0  0  0
   -2.6200   14.7410    0.3920 C   0  0  0  0  0  0  0  0  0  0  0  0
   -3.3710   14.8890   -2.2170 C   0  0  0  0  0  0  0  0  0  0  0  0
   -1.7900   14.6570   -0.7300 C   0  0  0  0  0  0  0  0  0  0  0  0
   -1.8260   14.6200    1.5400 N   0  0  0  0  0  0  0  0  0  0  0  0
   -2.0820   14.7170   -2.0330 N   0  0  0  0  0  0  0  0  0  0  0  0
   -0.5460   14.4970   -0.2780 N   0  0  0  0  0  0  0  0  0  0  0  0
   -0.5850   14.4780    1.0890 C   0  0  0  0  0  0  0  0  0  0  0  0
    0.5650   14.3810   -1.1750 C   0  0  0  0  0  0  0  0  0  0  0  0
  1  2  1  0
  2  3  1  0
  1  4  1  6
  1  5  1  0
  4  6  1  0
  5  7  1  0
  5  8  2  0
  2  9  1  0
  3 10  2  0
  8 11  1  0
  7 12  1  0
 11 12  2  0
  9 13  2  0
  9 14  1  0
 13 15  1  0
 14 16  2  0
 14 17  1  0
 15 18  2  0
 16 18  1  0
 16 19  1  0
 17 20  2  0
 19 20  1  0
 19 21  1  0
M  END
