mac-x0190-diamond-x0837_0_A
     RDKit          3D

 12 13  0  0  0  0  0  0  0  0999 V2000
   -9.2070   15.0170    2.4640 O   0  0  0  0  0  0  0  0  0  0  0  0
   -9.0050   14.2440    1.2860 C   0  0  0  0  0  0  0  0  0  0  0  0
   -7.6250   14.5140    0.8220 C   0  0  0  0  0  0  0  0  0  0  0  0
   -7.3160   14.6200   -0.5090 N   0  0  0  0  0  0  0  0  0  0  0  0
   -6.5510   14.6830    1.5650 N   0  0  0  0  0  0  0  0  0  0  0  0
   -5.9740   14.8680   -0.6200 C   0  0  0  0  0  0  0  0  0  0  0  0
   -5.5180   14.9060    0.6920 C   0  0  0  0  0  0  0  0  0  0  0  0
   -5.1410   15.0530   -1.7220 C   0  0  0  0  0  0  0  0  0  0  0  0
   -4.1560   15.1490    0.9460 C   0  0  0  0  0  0  0  0  0  0  0  0
   -3.7880   15.2780   -1.4430 C   0  0  0  0  0  0  0  0  0  0  0  0
   -3.2940   15.3340   -0.1380 C   0  0  0  0  0  0  0  0  0  0  0  0
   -2.4720   15.5210   -3.0310 I   0  0  0  0  0  0  0  0  0  0  0  0
  1  2  1  0
  2  3  1  0
  3  4  1  0
  3  5  2  0
  4  6  1  0
  5  7  1  0
  6  7  2  0
  6  8  1  0
  7  9  1  0
  8 10  2  0
  9 11  2  0
 10 11  1  0
 10 12  1  0
M  END
