mac-x0338-mac-x0433
     RDKit          3D

 11 11  0  0  0  0  0  0  0  0999 V2000
   -4.1430   15.3970    2.1150 N   0  0  0  0  0  0  0  0  0  0  0  0
   -5.1620   15.0990    1.2730 C   0  0  0  0  0  0  0  0  0  0  0  0
   -6.3090   14.9010    1.6620 O   0  0  0  0  0  0  0  0  0  0  0  0
   -4.7560   15.0440   -0.1590 C   0  0  0  0  0  0  0  0  0  0  0  0
   -3.4040   14.7940   -0.5180 N   0  0  0  0  0  0  0  0  0  0  0  0
   -5.6940   15.2320   -1.1100 C   0  0  0  0  0  0  0  0  0  0  0  0
   -2.3610   14.7960    0.5050 C   0  0  0  0  0  0  0  0  0  0  0  0
   -3.0800   14.9430   -1.8690 C   0  0  0  0  0  0  0  0  0  0  0  0
   -5.3640   15.1840   -2.4500 N   0  0  0  0  0  0  0  0  0  0  0  0
   -6.3610   14.8990   -3.3730 N   0  0  0  0  0  0  0  0  0  0  0  0
   -4.0260   15.1330   -2.8040 C   0  0  0  0  0  0  0  0  0  0  0  0
  1  2  1  0
  2  3  2  0
  2  4  1  0
  4  5  1  0
  4  6  2  0
  5  7  1  0
  5  8  1  0
  6  9  1  0
  9 10  1  0
  8 11  2  0
  9 11  1  0
M  END
