mac-x0301-mac-x0277
     RDKit          3D

 23 25  0  0  0  0  0  0  0  0999 V2000
   -0.5600   12.8150   -2.7320 O   0  0  0  0  0  0  0  0  0  0  0  0
   -1.4000   13.8480   -3.1690 C   0  0  1  0  0  0  0  0  0  0  0  0
   -2.0790   14.4270   -1.9230 C   0  0  0  0  0  0  0  0  0  0  0  0
   -0.5730   14.8310   -3.9300 C   0  0  0  0  0  0  0  0  0  0  0  0
   -1.4760   14.4010   -0.6500 C   0  0  0  0  0  0  0  0  0  0  0  0
   -3.3550   15.0170   -1.9770 C   0  0  0  0  0  0  0  0  0  0  0  0
    0.8270   14.7160   -3.9980 C   0  0  0  0  0  0  0  0  0  0  0  0
   -1.2130   15.9060   -4.5780 C   0  0  0  0  0  0  0  0  0  0  0  0
   -2.1020   14.9130    0.4850 C   0  0  0  0  0  0  0  0  0  0  0  0
   -3.9810   15.5360   -0.8280 C   0  0  0  0  0  0  0  0  0  0  0  0
   -0.2490   13.8960   -0.3250 O   0  0  0  0  0  0  0  0  0  0  0  0
   -2.9380   16.0350   -4.5640 Cl  0  0  0  0  0  0  0  0  0  0  0  0
    1.7010   13.6120   -3.3980 C   0  0  0  0  0  0  0  0  0  0  0  0
   -0.4810   16.8810   -5.2370 C   0  0  0  0  0  0  0  0  0  0  0  0
    1.5210   15.6920   -4.6680 C   0  0  0  0  0  0  0  0  0  0  0  0
   -3.3550   15.4850    0.4200 C   0  0  0  0  0  0  0  0  0  0  0  0
   -1.3500   14.7850    1.6180 O   0  0  0  0  0  0  0  0  0  0  0  0
   -0.1050   14.3770    1.0310 C   0  0  0  0  0  0  0  0  0  0  0  0
   -1.2300   18.2350   -6.0080 Cl  0  0  0  0  0  0  0  0  0  0  0  0
    1.0080   12.4870   -2.6640 C   0  0  0  0  0  0  0  0  0  0  0  0
    0.8980   16.7760   -5.2820 C   0  0  0  0  0  0  0  0  0  0  0  0
    0.6080   11.4550   -3.4330 O   0  0  0  0  0  0  0  0  0  0  0  0
    0.7940   12.4880   -1.4570 O   0  0  0  0  0  0  0  0  0  0  0  0
  2  1  1  1
  2  3  1  0
  2  4  1  0
  3  5  1  0
  3  6  2  0
  4  7  2  0
  4  8  1  0
  5  9  2  0
  6 10  1  0
  5 11  1  0
  8 12  1  0
  7 13  1  0
  8 14  2  0
  7 15  1  0
  9 16  1  0
 10 16  2  0
  9 17  1  0
 11 18  1  0
 17 18  1  0
 14 19  1  0
 13 20  1  0
 14 21  1  0
 15 21  2  0
 20 22  1  0
 20 23  2  0
M  END
