mac-x0394-diamond-x0962_1_A
     RDKit          3D

 21 22  0  0  0  0  0  0  0  0999 V2000
    1.0270   18.3320   -5.1090 Cl  0  0  0  0  0  0  0  0  0  0  0  0
    0.3050   16.7990   -5.0040 C   0  0  0  0  0  0  0  0  0  0  0  0
   -1.0560   16.7090   -5.2450 C   0  0  0  0  0  0  0  0  0  0  0  0
    1.0660   15.6740   -4.6900 C   0  0  0  0  0  0  0  0  0  0  0  0
    0.4550   14.4240   -4.6180 C   0  0  0  0  0  0  0  0  0  0  0  0
   -1.6830   15.4750   -5.1800 C   0  0  0  0  0  0  0  0  0  0  0  0
   -3.1540   15.3370   -5.4370 C   0  0  0  0  0  0  0  0  0  0  0  0
    1.2540   13.1860   -4.2790 C   0  0  0  0  0  0  0  0  0  0  0  0
   -0.9220   14.3380   -4.8670 C   0  0  0  0  0  0  0  0  0  0  0  0
    0.7890   12.5140   -3.0050 C   0  0  0  0  0  0  0  0  0  0  0  0
   -3.8280   14.6380   -4.2700 C   0  0  0  0  0  0  0  0  0  0  0  0
    0.1710   11.3360   -3.2410 O   0  0  0  0  0  0  0  0  0  0  0  0
    0.9140   12.9150   -1.8600 O   0  0  0  0  0  0  0  0  0  0  0  0
   -2.9960   14.7980   -2.9960 C   0  0  0  0  0  0  0  0  0  0  0  0
   -3.8500   14.9230   -1.8310 C   0  0  0  0  0  0  0  0  0  0  0  0
   -4.6310   14.9270   -0.9470 C   0  0  0  0  0  0  0  0  0  0  0  0
   -5.6500   14.8010    0.0080 C   0  0  0  0  0  0  0  0  0  0  0  0
   -5.5000   14.7360    1.3590 N   0  0  0  0  0  0  0  0  0  0  0  0
   -7.0000   14.7080   -0.2120 C   0  0  0  0  0  0  0  0  0  0  0  0
   -6.7470   14.6050    1.9000 C   0  0  0  0  0  0  0  0  0  0  0  0
   -7.6850   14.5830    0.9720 N   0  0  0  0  0  0  0  0  0  0  0  0
  1  2  1  0
  2  3  2  0
  2  4  1  0
  4  5  2  0
  3  6  1  0
  6  7  1  0
  5  8  1  0
  5  9  1  0
  6  9  2  0
  8 10  1  0
  7 11  1  0
 10 12  1  0
 10 13  2  0
 11 14  1  0
 14 15  1  0
 15 16  3  0
 16 17  1  0
 17 18  1  0
 17 19  2  0
 18 20  1  0
 19 21  1  0
 20 21  2  0
M  END
