mac-x0373-mac-x0358
     RDKit          3D

 26 28  0  0  0  0  0  0  0  0999 V2000
    0.6240   13.1200   -2.0100 O   0  0  0  0  0  0  0  0  0  0  0  0
    0.0520   14.3420   -2.1030 C   0  0  0  0  0  0  0  0  0  0  0  0
    0.6020   15.4050   -1.8550 O   0  0  0  0  0  0  0  0  0  0  0  0
    0.7340   12.3410   -3.1230 C   0  0  0  0  0  0  0  0  0  0  0  0
   -1.4150   14.2800   -2.5680 C   0  0  0  0  0  0  0  0  0  0  0  0
    0.6760   11.1210   -3.1220 O   0  0  0  0  0  0  0  0  0  0  0  0
    0.9170   13.1680   -4.4110 C   0  0  0  0  0  0  0  0  0  0  0  0
   -1.8220   12.9570   -3.2270 C   0  0  0  0  0  0  0  0  0  0  0  0
   -2.4510   14.7440   -1.5590 C   0  0  0  0  0  0  0  0  0  0  0  0
   -0.4210   13.6570   -4.9590 C   0  0  0  0  0  0  0  0  0  0  0  0
   -0.9710   12.3410   -4.1520 C   0  0  0  0  0  0  0  0  0  0  0  0
   -3.0380   12.3310   -2.9330 C   0  0  0  0  0  0  0  0  0  0  0  0
   -3.6520   15.2910   -2.0460 C   0  0  0  0  0  0  0  0  0  0  0  0
   -2.2620   14.6450   -0.1750 C   0  0  0  0  0  0  0  0  0  0  0  0
   -1.2930   12.8160   -5.6860 C   0  0  0  0  0  0  0  0  0  0  0  0
   -0.8270   14.9870   -4.7350 C   0  0  0  0  0  0  0  0  0  0  0  0
   -0.9080   11.5240   -5.9290 O   0  0  0  0  0  0  0  0  0  0  0  0
   -1.3170   11.1320   -4.7690 C   0  0  0  0  0  0  0  0  0  0  0  0
   -3.3870   11.1250   -3.5520 C   0  0  0  0  0  0  0  0  0  0  0  0
   -4.6370   15.7250   -1.1660 C   0  0  0  0  0  0  0  0  0  0  0  0
   -3.2530   15.0820    0.7000 C   0  0  0  0  0  0  0  0  0  0  0  0
   -2.5270   13.2720   -6.1550 C   0  0  0  0  0  0  0  0  0  0  0  0
   -2.0670   15.4450   -5.2070 C   0  0  0  0  0  0  0  0  0  0  0  0
   -2.5260   10.5290   -4.4680 C   0  0  0  0  0  0  0  0  0  0  0  0
   -4.4330   15.6180    0.2020 C   0  0  0  0  0  0  0  0  0  0  0  0
   -2.9150   14.5910   -5.9100 C   0  0  0  0  0  0  0  0  0  0  0  0
  1  2  1  0
  2  3  2  0
  1  4  1  0
  2  5  1  0
  4  6  2  0
  4  7  1  0
  5  8  1  0
  5  9  1  0
  7 10  1  0
  8 11  2  0
  8 12  1  0
  9 13  2  0
  9 14  1  0
 10 15  2  0
 10 16  1  0
 15 17  1  0
 11 18  1  0
 12 19  2  0
 13 20  1  0
 14 21  2  0
 15 22  1  0
 16 23  2  0
 18 24  2  0
 19 24  1  0
 20 25  2  0
 21 25  1  0
 22 26  2  0
 23 26  1  0
M  END
