mac-x0193-mac-x0587
     RDKit          3D

 25 26  0  0  0  0  0  0  0  0999 V2000
    0.4120   10.6740   -2.9250 O   0  0  0  0  0  0  0  0  0  0  0  0
    0.6330   11.8450   -3.5570 C   0  0  0  0  0  0  0  0  0  0  0  0
    1.4510   12.6160   -3.0630 O   0  0  0  0  0  0  0  0  0  0  0  0
   -0.1900   12.1000   -4.8540 C   0  0  2  0  0  0  0  0  0  0  0  0
    0.1310   11.1790   -5.9430 N   0  0  0  0  0  0  0  0  0  0  0  0
   -0.2560   13.8310   -5.3800 S   0  0  0  0  0  0  0  0  0  0  0  0
    1.1250   11.4730   -6.8480 C   0  0  0  0  0  0  0  0  0  0  0  0
   -0.5820   14.8510   -3.8820 C   0  0  1  0  0  0  0  0  0  0  0  0
    2.1600   12.0220   -6.5220 O   0  0  0  0  0  0  0  0  0  0  0  0
    0.8470   11.1490   -8.1670 N   0  0  0  0  0  0  0  0  0  0  0  0
    0.1600   16.1810   -3.9680 C   0  0  0  0  0  0  0  0  0  0  0  0
   -2.0780   15.0330   -3.5320 C   0  0  0  0  0  0  0  0  0  0  0  0
   -2.9250   15.3430   -4.3780 O   0  0  0  0  0  0  0  0  0  0  0  0
    0.3490    9.8760   -8.7020 C   0  0  0  0  0  0  0  0  0  0  0  0
   -2.4970   14.8400   -2.2030 N   0  0  0  0  0  0  0  0  0  0  0  0
    1.3410    8.6990   -8.5220 C   0  0  0  0  0  0  0  0  0  0  0  0
   -0.1820   10.0660  -10.1400 C   0  0  0  0  0  0  0  0  0  0  0  0
   -3.8840   15.0950   -1.8410 C   0  0  0  0  0  0  0  0  0  0  0  0
   -1.7370   14.7550   -1.0130 C   0  0  0  0  0  0  0  0  0  0  0  0
   -0.5320   14.7800   -0.8700 O   0  0  0  0  0  0  0  0  0  0  0  0
    2.0540    8.1270   -9.7670 C   0  0  0  0  0  0  0  0  0  0  0  0
    0.7630    9.6270  -11.2530 C   0  0  0  0  0  0  0  0  0  0  0  0
   -3.9060   15.1670   -0.3230 C   0  0  0  0  0  0  0  0  0  0  0  0
   -2.6250   14.6510    0.0530 N   0  0  0  0  0  0  0  0  0  0  0  0
    1.2190    8.2000  -11.0270 C   0  0  0  0  0  0  0  0  0  0  0  0
  1  2  1  0
  2  3  2  0
  2  4  1  0
  4  5  1  6
  4  6  1  0
  5  7  1  0
  6  8  1  0
  7  9  2  0
  7 10  1  0
  8 11  1  6
  8 12  1  0
 12 13  2  0
 10 14  1  0
 12 15  1  0
 14 16  1  0
 14 17  1  0
 15 18  1  0
 15 19  1  0
 19 20  2  0
 16 21  1  0
 17 22  1  0
 18 23  1  0
 19 24  1  0
 23 24  1  0
 21 25  1  0
 22 25  1  0
M  END
