mac-x0137-mac-x0379
     RDKit          3D

 20 22  0  0  0  0  0  0  0  0999 V2000
   -2.5100   13.1640   -4.8630 F   0  0  0  0  0  0  0  0  0  0  0  0
   -1.6850   13.0240   -3.7880 C   0  0  1  0  0  0  0  0  0  0  0  0
   -0.6880   11.9150   -4.0500 C   0  0  0  0  0  0  0  0  0  0  0  0
   -0.9220   14.3160   -3.4730 C   0  0  0  0  0  0  0  0  0  0  0  0
   -0.0610   14.1460   -2.2690 N   0  0  0  0  0  0  0  0  0  0  0  0
    0.2650   11.7870   -2.8610 C   0  0  0  0  0  0  0  0  0  0  0  0
    0.9510   13.1080   -2.4890 C   0  0  0  0  0  0  0  0  0  0  0  0
   -0.5880   14.3010   -0.9690 C   0  0  0  0  0  0  0  0  0  0  0  0
    0.1570   14.0430    0.1640 N   0  0  0  0  0  0  0  0  0  0  0  0
   -1.8320   14.6920   -0.7130 C   0  0  0  0  0  0  0  0  0  0  0  0
   -0.3750   14.1790    1.4180 C   0  0  0  0  0  0  0  0  0  0  0  0
   -2.3620   14.7960    0.6510 C   0  0  0  0  0  0  0  0  0  0  0  0
   -2.8900   15.0630   -1.5270 C   0  0  0  0  0  0  0  0  0  0  0  0
   -2.6120   15.1180   -2.9640 C   0  0  0  0  0  0  0  0  0  0  0  0
   -1.5750   14.5310    1.7280 N   0  0  0  0  0  0  0  0  0  0  0  0
   -3.6230   15.1250    0.6720 N   0  0  0  0  0  0  0  0  0  0  0  0
   -3.9570   15.2930   -0.6860 C   0  0  0  0  0  0  0  0  0  0  0  0
   -5.3550   15.6950   -0.9880 C   0  0  0  0  0  0  0  0  0  0  0  0
   -3.3190   14.8950   -3.9190 O   0  0  0  0  0  0  0  0  0  0  0  0
   -1.3050   15.4710   -3.1300 O   0  0  0  0  0  0  0  0  0  0  0  0
  2  1  1  6
  2  3  1  0
  2  4  1  0
  4  5  1  0
  3  6  1  0
  5  7  1  0
  6  7  1  0
  5  8  1  0
  8  9  1  0
  8 10  2  0
  9 11  1  0
 10 12  1  0
 10 13  1  0
 13 14  1  0
 11 15  2  0
 12 15  1  0
 12 16  2  0
 13 17  2  0
 16 17  1  0
 17 18  1  0
 14 19  2  0
 14 20  1  0
M  END
