mac-x0576-diamond-x0711_0_A
     RDKit          3D

 19 20  0  0  0  0  0  0  0  0999 V2000
    0.2330   14.6920    1.6230 N   0  0  0  0  0  0  0  0  0  0  0  0
   -0.7130   14.2170    0.7250 C   0  0  1  0  0  0  0  0  0  0  0  0
   -1.9200   14.2740    1.4940 N   0  0  0  0  0  0  0  0  0  0  0  0
   -0.6870   14.8020   -0.5600 N   0  0  0  0  0  0  0  0  0  0  0  0
   -1.7700   14.6080   -1.3730 C   0  0  0  0  0  0  0  0  0  0  0  0
   -2.9230   15.0790    0.8140 C   0  0  1  0  0  0  0  0  0  0  0  0
   -1.7670   14.3260   -2.6250 N   0  0  0  0  0  0  0  0  0  0  0  0
   -3.1520   14.7050   -0.6880 C   0  0  1  0  0  0  0  0  0  0  0  0
   -4.2150   15.1900    1.4340 N   0  0  0  0  0  0  0  0  0  0  0  0
   -0.3750   14.1100   -3.3990 S   0  0  0  0  0  0  0  0  0  0  0  0
   -5.3560   15.0850    0.6620 C   0  0  0  0  0  0  0  0  0  0  0  0
   -4.0690   15.5570   -1.4410 N   0  0  0  0  0  0  0  0  0  0  0  0
   -6.3380   14.4770    1.2350 N   0  0  0  0  0  0  0  0  0  0  0  0
   -0.9090   12.9620   -4.6410 C   0  0  0  0  0  0  0  0  0  0  0  0
    0.0490   15.3210   -4.0680 O   0  0  0  0  0  0  0  0  0  0  0  0
    0.5110   13.4000   -2.4980 O   0  0  0  0  0  0  0  0  0  0  0  0
   -5.3630   15.6980   -0.7700 C   0  0  0  0  0  0  0  0  0  0  0  0
   -7.5100   14.3170    0.5850 C   0  0  0  0  0  0  0  0  0  0  0  0
   -7.7760   14.6930   -0.5450 O   0  0  0  0  0  0  0  0  0  0  0  0
  2  1  1  1
  2  3  1  0
  2  4  1  0
  4  5  1  0
  6  3  1  1
  5  7  2  3
  5  8  1  0
  6  8  1  0
  6  9  1  0
 10  7  1  0
  9 11  1  0
  8 12  1  6
 11 13  2  3
 10 14  1  0
 10 15  2  0
 10 16  2  0
 11 17  1  0
 12 17  1  0
 13 18  1  0
 18 19  2  0
M  END
