mac-x0441-mac-x0306
     RDKit          3D

 31 34  0  0  0  0  0  0  0  0999 V2000
    0.4800   10.8450   -3.3420 O   0  0  0  0  0  0  0  0  0  0  0  0
    0.5960   12.1840   -3.4200 C   0  0  0  0  0  0  0  0  0  0  0  0
    0.6990   12.9310   -2.3830 N   0  0  0  0  0  0  0  0  0  0  0  0
    0.5920   12.7410   -4.8260 C   0  0  0  0  0  0  0  0  0  0  0  0
    0.8130   14.3840   -2.3990 C   0  0  0  0  0  0  0  0  0  0  0  0
    0.2770   11.7810   -5.8810 N   0  0  0  0  0  0  0  0  0  0  0  0
   -0.3780   14.9820   -1.6260 C   0  0  0  0  0  0  0  0  0  0  0  0
    1.0350   11.7730   -7.0130 N   0  0  0  0  0  0  0  0  0  0  0  0
   -0.7130   10.8360   -5.9310 C   0  0  0  0  0  0  0  0  0  0  0  0
   -1.6210   15.3210   -2.4780 C   0  0  0  0  0  0  0  0  0  0  0  0
    0.5030   10.8030   -7.7940 C   0  0  0  0  0  0  0  0  0  0  0  0
   -0.5850   10.1980   -7.1420 C   0  0  0  0  0  0  0  0  0  0  0  0
   -1.7480   10.5180   -4.9140 C   0  0  0  0  0  0  0  0  0  0  0  0
    0.9590   10.3800   -9.1730 C   0  0  0  0  0  0  0  0  0  0  0  0
   -1.4640    9.0960   -7.6070 C   0  0  0  0  0  0  0  0  0  0  0  0
   -2.9040    9.7670   -5.6090 C   0  0  0  0  0  0  0  0  0  0  0  0
   -2.9030   15.2430   -1.7400 N   0  0  0  0  0  0  0  0  0  0  0  0
    1.6420    9.2060   -9.1970 F   0  0  0  0  0  0  0  0  0  0  0  0
   -0.1060   10.1930   -9.9880 F   0  0  0  0  0  0  0  0  0  0  0  0
    1.6890   11.2880   -9.8490 F   0  0  0  0  0  0  0  0  0  0  0  0
   -2.3860    8.6060   -6.4780 C   0  0  0  0  0  0  0  0  0  0  0  0
   -4.1340   15.3570   -2.3910 C   0  0  0  0  0  0  0  0  0  0  0  0
   -2.9470   15.4210   -0.3600 C   0  0  0  0  0  0  0  0  0  0  0  0
   -5.2880   15.0390   -1.7780 C   0  0  0  0  0  0  0  0  0  0  0  0
   -4.0320   15.1050    0.3640 C   0  0  0  0  0  0  0  0  0  0  0  0
   -5.2450   14.5280   -0.3480 C   0  0  0  0  0  0  0  0  0  0  0  0
   -6.5470   14.6200    0.4140 C   0  0  0  0  0  0  0  0  0  0  0  0
   -6.6150   14.5180    1.7900 N   0  0  0  0  0  0  0  0  0  0  0  0
   -7.7570   14.7930   -0.0890 N   0  0  0  0  0  0  0  0  0  0  0  0
   -8.6100   14.8050    0.9830 C   0  0  0  0  0  0  0  0  0  0  0  0
   -7.9230   14.6360    2.1570 C   0  0  0  0  0  0  0  0  0  0  0  0
  1  2  1  0
  2  3  2  3
  2  4  1  0
  3  5  1  0
  4  6  1  0
  5  7  1  0
  6  8  1  0
  6  9  1  0
  7 10  1  0
  8 11  2  0
  9 12  2  0
 11 12  1  0
  9 13  1  0
 11 14  1  0
 12 15  1  0
 13 16  1  0
 10 17  1  0
 14 18  1  0
 14 19  1  0
 14 20  1  0
 15 21  1  0
 16 21  1  0
 17 22  1  0
 17 23  1  0
 22 24  2  0
 23 25  2  0
 24 26  1  0
 25 26  1  0
 26 27  1  0
 27 28  1  0
 27 29  2  0
 29 30  1  0
 28 31  1  0
 30 31  2  0
M  END
