mac-x0255-mac-x0159
     RDKit          3D

 24 27  0  0  0  0  0  0  0  0999 V2000
    0.8930   12.6920   -1.6260 O   0  0  0  0  0  0  0  0  0  0  0  0
    1.0260   12.0410   -2.7950 C   0  0  0  0  0  0  0  0  0  0  0  0
    0.4460   10.9810   -2.9490 O   0  0  0  0  0  0  0  0  0  0  0  0
    1.9080   12.8180   -3.7430 C   0  0  0  0  0  0  0  0  0  0  0  0
    1.1960   14.0750   -4.0600 C   0  0  0  0  0  0  0  0  0  0  0  0
    1.6470   15.2480   -4.5890 C   0  0  0  0  0  0  0  0  0  0  0  0
   -0.4400   14.1370   -3.7340 S   0  0  0  0  0  0  0  0  0  0  0  0
    0.6400   16.2370   -4.7760 C   0  0  0  0  0  0  0  0  0  0  0  0
   -0.5420   15.7400   -4.3140 C   0  0  0  0  0  0  0  0  0  0  0  0
    0.6560   17.5480   -5.3120 C   0  0  0  0  0  0  0  0  0  0  0  0
   -1.6950   16.4320   -4.3010 C   0  0  0  0  0  0  0  0  0  0  0  0
   -2.8090   15.6560   -3.6600 C   0  0  0  0  0  0  0  0  0  0  0  0
   -0.5250   18.2890   -5.3560 C   0  0  0  0  0  0  0  0  0  0  0  0
   -1.6950   17.7390   -4.8520 C   0  0  0  0  0  0  0  0  0  0  0  0
   -2.3840   14.8570   -2.4560 N   0  0  0  0  0  0  0  0  0  0  0  0
   -3.5150   14.1900   -1.9120 C   0  0  0  0  0  0  0  0  0  0  0  0
   -1.4820   15.3940   -1.3860 C   0  0  1  0  0  0  0  0  0  0  0  0
   -4.2990   15.1200   -1.1480 N   0  0  0  0  0  0  0  0  0  0  0  0
   -2.1180   15.5650    0.0290 C   0  0  1  0  0  0  0  0  0  0  0  0
   -0.3030   14.5540   -1.0790 N   0  0  0  0  0  0  0  0  0  0  0  0
   -3.6640   15.5540    0.0640 C   0  0  2  0  0  0  0  0  0  0  0  0
   -1.4850   14.5450    0.8850 N   0  0  0  0  0  0  0  0  0  0  0  0
   -0.1400   14.5530    0.3730 C   0  0  0  0  0  0  0  0  0  0  0  0
   -4.2450   14.6640    1.0370 N   0  0  0  0  0  0  0  0  0  0  0  0
  1  2  1  0
  2  3  2  0
  2  4  1  0
  4  5  1  0
  5  6  2  0
  5  7  1  0
  6  8  1  0
  7  9  1  0
  8  9  2  0
  8 10  1  0
  9 11  1  0
 11 12  1  0
 10 13  2  0
 11 14  2  0
 13 14  1  0
 12 15  1  0
 15 16  1  0
 15 17  1  0
 16 18  1  0
 17 19  1  0
 17 20  1  1
 18 21  1  0
 19 21  1  0
 19 22  1  1
 20 23  1  0
 22 23  1  0
 21 24  1  1
M  END
