mac-x0223-mac-x0138
     RDKit          3D

 25 27  0  0  0  0  0  0  0  0999 V2000
    1.3760   18.5660   -5.7950 C   0  0  0  0  0  0  0  0  0  0  0  0
    0.0430   18.2110   -5.9520 O   0  0  0  0  0  0  0  0  0  0  0  0
   -0.2820   17.0540   -5.3480 C   0  0  0  0  0  0  0  0  0  0  0  0
   -1.5430   17.0400   -4.8310 C   0  0  0  0  0  0  0  0  0  0  0  0
    0.5430   15.9340   -5.2220 C   0  0  0  0  0  0  0  0  0  0  0  0
   -2.3220   18.1510   -4.9540 O   0  0  0  0  0  0  0  0  0  0  0  0
   -2.0130   15.9290   -4.1780 C   0  0  0  0  0  0  0  0  0  0  0  0
    0.0980   14.7770   -4.5560 C   0  0  0  0  0  0  0  0  0  0  0  0
    1.0590   13.5950   -4.4590 C   0  0  0  0  0  0  0  0  0  0  0  0
   -1.2020   14.8030   -4.0230 C   0  0  0  0  0  0  0  0  0  0  0  0
    0.8130   12.6410   -3.3110 C   0  0  0  0  0  0  0  0  0  0  0  0
   -1.8100   13.6990   -3.2580 C   0  0  0  0  0  0  0  0  0  0  0  0
    0.2090   11.5790   -3.3320 O   0  0  0  0  0  0  0  0  0  0  0  0
    1.3620   13.0860   -2.1640 O   0  0  0  0  0  0  0  0  0  0  0  0
   -2.5920   14.2560   -2.1660 N   0  0  0  0  0  0  0  0  0  0  0  0
   -3.8560   14.7560   -2.2970 C   0  0  0  0  0  0  0  0  0  0  0  0
   -2.2240   14.3770   -0.8430 C   0  0  0  0  0  0  0  0  0  0  0  0
   -4.3390   15.1780   -1.1540 N   0  0  0  0  0  0  0  0  0  0  0  0
   -3.3350   14.9420   -0.2430 C   0  0  0  0  0  0  0  0  0  0  0  0
   -1.0630   14.0300   -0.2330 N   0  0  0  0  0  0  0  0  0  0  0  0
   -3.2460   15.1590    1.1330 C   0  0  0  0  0  0  0  0  0  0  0  0
   -1.0930   14.2930    1.0930 C   0  0  0  0  0  0  0  0  0  0  0  0
   -4.2760   15.6980    1.8820 N   0  0  0  0  0  0  0  0  0  0  0  0
    0.0070   14.0010    1.8840 N   0  0  0  0  0  0  0  0  0  0  0  0
   -2.1060   14.8240    1.7710 N   0  0  0  0  0  0  0  0  0  0  0  0
  1  2  1  0
  2  3  1  0
  3  4  2  0
  3  5  1  0
  4  6  1  0
  4  7  1  0
  5  8  2  0
  8  9  1  0
  7 10  2  0
  8 10  1  0
  9 11  1  0
 10 12  1  0
 11 13  2  0
 11 14  1  0
 12 15  1  0
 15 16  1  0
 15 17  1  0
 16 18  2  0
 17 19  2  0
 18 19  1  0
 17 20  1  0
 19 21  1  0
 20 22  2  0
 21 23  1  0
 22 24  1  0
 21 25  2  0
 22 25  1  0
M  END
