mac-x0361-diamond-x1015_0_A
     RDKit          3D

 24 26  0  0  0  0  0  0  0  0999 V2000
   -5.8090   14.9050    1.5170 N   0  0  0  0  0  0  0  0  0  0  0  0
   -6.1580   14.8610    0.1970 C   0  0  0  0  0  0  0  0  0  0  0  0
   -7.3460   14.8470   -0.1140 O   0  0  0  0  0  0  0  0  0  0  0  0
   -5.0720   14.8150   -0.8360 C   0  0  0  0  0  0  0  0  0  0  0  0
   -3.7550   14.5260   -0.4360 C   0  0  0  0  0  0  0  0  0  0  0  0
   -5.3090   15.0430   -2.1920 C   0  0  0  0  0  0  0  0  0  0  0  0
   -2.6990   14.4550   -1.3800 C   0  0  0  0  0  0  0  0  0  0  0  0
   -4.2580   14.9710   -3.1270 C   0  0  0  0  0  0  0  0  0  0  0  0
   -2.9370   14.6750   -2.7480 C   0  0  0  0  0  0  0  0  0  0  0  0
   -1.8780   14.5930   -3.6720 O   0  0  0  0  0  0  0  0  0  0  0  0
   -0.5950   13.8840   -3.6260 C   0  0  2  0  0  0  0  0  0  0  0  0
   -0.6510   12.3970   -3.6480 N   0  0  0  0  0  0  0  0  0  0  0  0
    0.1870   14.1020   -2.3260 C   0  0  0  0  0  0  0  0  0  0  0  0
    0.3970   15.1620   -1.7620 O   0  0  0  0  0  0  0  0  0  0  0  0
    0.0770   11.8830   -2.5580 C   0  0  0  0  0  0  0  0  0  0  0  0
    0.6470   12.9100   -1.8830 N   0  0  0  0  0  0  0  0  0  0  0  0
   -0.8390   11.6150   -4.8390 C   0  0  0  0  0  0  0  0  0  0  0  0
    0.2330   10.7080   -2.2000 O   0  0  0  0  0  0  0  0  0  0  0  0
   -0.1560   11.8690   -6.0510 C   0  0  0  0  0  0  0  0  0  0  0  0
   -1.7270   10.5300   -4.8290 C   0  0  0  0  0  0  0  0  0  0  0  0
   -0.3640   11.0690   -7.1920 C   0  0  0  0  0  0  0  0  0  0  0  0
   -1.9380    9.7330   -5.9620 C   0  0  0  0  0  0  0  0  0  0  0  0
   -1.2570   10.0020   -7.1370 C   0  0  0  0  0  0  0  0  0  0  0  0
   -1.5300    9.0110   -8.5170 Cl  0  0  0  0  0  0  0  0  0  0  0  0
  1  2  1  0
  2  3  2  0
  2  4  1  0
  4  5  2  0
  4  6  1  0
  5  7  1  0
  6  8  2  0
  7  9  2  0
  8  9  1  0
  9 10  1  0
 11 10  1  1
 11 12  1  0
 11 13  1  0
 13 14  2  0
 12 15  1  0
 13 16  1  0
 15 16  1  0
 12 17  1  0
 15 18  2  0
 17 19  2  0
 17 20  1  0
 19 21  1  0
 20 22  2  0
 21 23  2  0
 22 23  1  0
 23 24  1  0
M  END
