mac-x0433-mac-x0255
     RDKit          3D

 25 27  0  0  0  0  0  0  0  0999 V2000
   -3.0840   15.2690    0.4950 C   0  0  0  0  0  0  0  0  0  0  0  0
   -4.4540   15.1040   -0.0810 C   0  0  0  0  0  0  0  0  0  0  0  0
   -5.5060   14.9020    0.7720 C   0  0  0  0  0  0  0  0  0  0  0  0
   -4.6210   15.1530   -1.4240 N   0  0  0  0  0  0  0  0  0  0  0  0
   -5.8670   14.9970   -1.9030 C   0  0  0  0  0  0  0  0  0  0  0  0
   -6.7470   14.7530    0.1960 C   0  0  0  0  0  0  0  0  0  0  0  0
   -7.9510   14.5310    1.0600 C   0  0  0  0  0  0  0  0  0  0  0  0
   -6.1560   15.0130   -3.2710 N   0  0  0  0  0  0  0  0  0  0  0  0
   -6.9380   14.7990   -1.1310 N   0  0  0  0  0  0  0  0  0  0  0  0
   -5.2010   14.4410   -4.2170 C   0  0  0  0  0  0  0  0  0  0  0  0
   -3.8560   15.1730   -4.1690 C   0  0  0  0  0  0  0  0  0  0  0  0
   -3.4170   15.7590   -5.5270 C   0  0  0  0  0  0  0  0  0  0  0  0
   -2.0870   16.4580   -5.4250 C   0  0  0  0  0  0  0  0  0  0  0  0
   -0.9400   15.7350   -5.0730 C   0  0  0  0  0  0  0  0  0  0  0  0
   -1.9280   17.8360   -5.6780 C   0  0  0  0  0  0  0  0  0  0  0  0
    0.3200   16.3200   -4.9610 C   0  0  0  0  0  0  0  0  0  0  0  0
   -0.8790   14.0510   -4.7340 S   0  0  0  0  0  0  0  0  0  0  0  0
   -0.6860   18.4440   -5.5730 C   0  0  0  0  0  0  0  0  0  0  0  0
    0.7910   14.0820   -4.4440 C   0  0  0  0  0  0  0  0  0  0  0  0
    1.3070   15.3490   -4.5920 C   0  0  0  0  0  0  0  0  0  0  0  0
    0.4370   17.7050   -5.2150 C   0  0  0  0  0  0  0  0  0  0  0  0
    1.4860   12.8140   -4.0820 C   0  0  0  0  0  0  0  0  0  0  0  0
    0.8600   12.2110   -2.8480 C   0  0  0  0  0  0  0  0  0  0  0  0
    1.1100   12.9730   -1.7630 O   0  0  0  0  0  0  0  0  0  0  0  0
    0.1900   11.1980   -2.7310 O   0  0  0  0  0  0  0  0  0  0  0  0
  1  2  1  0
  2  3  2  0
  2  4  1  0
  4  5  2  0
  3  6  1  0
  6  7  1  0
  5  8  1  0
  5  9  1  0
  6  9  2  0
  8 10  1  0
 10 11  1  0
 11 12  1  0
 12 13  1  0
 13 14  1  0
 13 15  2  0
 14 16  2  0
 14 17  1  0
 15 18  1  0
 17 19  1  0
 16 20  1  0
 19 20  2  0
 16 21  1  0
 18 21  2  0
 19 22  1  0
 22 23  1  0
 23 24  1  0
 23 25  2  0
M  END
