mac-x0439-mac-x0354
     RDKit          3D

 27 30  0  0  0  0  0  0  0  0999 V2000
   -3.1450   15.9170   -5.3170 Cl  0  0  0  0  0  0  0  0  0  0  0  0
   -1.7490   16.9130   -5.4580 C   0  0  0  0  0  0  0  0  0  0  0  0
   -0.4400   16.2860   -5.2720 C   0  0  2  0  0  0  0  0  0  0  0  0
   -1.7780   18.2140   -5.7550 C   0  0  0  0  0  0  0  0  0  0  0  0
   -0.1550   15.1460   -4.4500 C   0  0  0  0  0  0  0  0  0  0  0  0
    0.5920   17.1930   -4.7370 C   0  0  0  0  0  0  0  0  0  0  0  0
   -0.5300   18.9480   -5.8650 C   0  0  0  0  0  0  0  0  0  0  0  0
    0.8770   15.4330   -3.6890 C   0  0  0  0  0  0  0  0  0  0  0  0
    1.3370   16.7140   -3.8070 N   0  0  0  0  0  0  0  0  0  0  0  0
    0.6500   18.5010   -5.3760 C   0  0  0  0  0  0  0  0  0  0  0  0
    1.4200   14.3020   -2.9720 C   0  0  0  0  0  0  0  0  0  0  0  0
    2.5600   14.4780   -2.2210 O   0  0  0  0  0  0  0  0  0  0  0  0
    0.8360   13.2530   -3.2790 N   0  0  0  0  0  0  0  0  0  0  0  0
    0.9040   11.8700   -3.1890 C   0  0  1  0  0  0  0  0  0  0  0  0
   -0.1160   11.1200   -2.5440 O   0  0  0  0  0  0  0  0  0  0  0  0
    0.9700   11.7840   -4.6960 C   0  0  0  0  0  0  0  0  0  0  0  0
    1.9390   12.5450   -5.3970 C   0  0  0  0  0  0  0  0  0  0  0  0
    0.2870   11.1150   -5.7300 C   0  0  0  0  0  0  0  0  0  0  0  0
    0.8920   11.5160   -6.8860 N   0  0  0  0  0  0  0  0  0  0  0  0
    1.8870   12.3760   -6.6960 N   0  0  0  0  0  0  0  0  0  0  0  0
   -0.8110   10.1760   -5.7910 C   0  0  0  0  0  0  0  0  0  0  0  0
    0.5520   11.0980   -8.2300 C   0  0  0  0  0  0  0  0  0  0  0  0
   -0.6100    8.9300   -6.3980 C   0  0  0  0  0  0  0  0  0  0  0  0
   -2.0560   10.5000   -5.2640 C   0  0  0  0  0  0  0  0  0  0  0  0
   -1.6510    8.0120   -6.4760 C   0  0  0  0  0  0  0  0  0  0  0  0
   -3.0990    9.5800   -5.3430 C   0  0  0  0  0  0  0  0  0  0  0  0
   -2.8970    8.3410   -5.9470 C   0  0  0  0  0  0  0  0  0  0  0  0
  1  2  1  0
  2  3  1  0
  2  4  2  0
  3  5  1  1
  3  6  1  0
  4  7  1  0
  5  8  2  0
  6  9  2  0
  8  9  1  0
  6 10  1  0
  7 10  2  0
  8 11  1  0
 11 12  1  0
 11 13  2  3
 13 14  1  0
 14 15  1  6
 14 16  1  0
 16 17  1  0
 16 18  2  0
 18 19  1  0
 17 20  2  0
 19 20  1  0
 18 21  1  0
 19 22  1  0
 21 23  2  0
 21 24  1  0
 23 25  1  0
 24 26  2  0
 25 27  2  0
 26 27  1  0
M  END
