mac-x0179-mac-x0305
     RDKit          3D

 24 26  0  0  0  0  0  0  0  0999 V2000
    0.0590   12.6410   -1.5700 O   0  0  0  0  0  0  0  0  0  0  0  0
    0.4030   11.8040   -2.6310 C   0  0  0  0  0  0  0  0  0  0  0  0
    0.5400   10.5780   -2.5370 O   0  0  0  0  0  0  0  0  0  0  0  0
   -0.2080   13.9720   -1.7950 C   0  0  0  0  0  0  0  0  0  0  0  0
    0.5940   12.5790   -3.9640 C   0  0  0  0  0  0  0  0  0  0  0  0
    0.4740   14.7440   -2.4410 O   0  0  0  0  0  0  0  0  0  0  0  0
   -1.5050   14.4450   -1.1560 C   0  0  0  0  0  0  0  0  0  0  0  0
    0.0540   11.8280   -5.1030 N   0  0  0  0  0  0  0  0  0  0  0  0
   -1.7160   14.6100    0.2370 C   0  0  0  0  0  0  0  0  0  0  0  0
   -2.4910   14.7250   -2.0650 N   0  0  0  0  0  0  0  0  0  0  0  0
   -0.7590   14.3460    1.1780 O   0  0  0  0  0  0  0  0  0  0  0  0
    0.7290   11.5320   -6.2640 C   0  0  0  0  0  0  0  0  0  0  0  0
   -1.1390   11.1680   -5.0500 C   0  0  0  0  0  0  0  0  0  0  0  0
   -2.9700   15.0710    0.6680 C   0  0  0  0  0  0  0  0  0  0  0  0
   -3.6830   15.1710   -1.6070 C   0  0  0  0  0  0  0  0  0  0  0  0
    1.7550   12.0090   -6.6950 O   0  0  0  0  0  0  0  0  0  0  0  0
   -2.0330   11.2930   -4.2420 O   0  0  0  0  0  0  0  0  0  0  0  0
   -0.0290   10.4590   -6.9290 C   0  0  0  0  0  0  0  0  0  0  0  0
   -1.1690   10.2390   -6.1790 C   0  0  0  0  0  0  0  0  0  0  0  0
   -3.9660   15.3580   -0.2650 C   0  0  0  0  0  0  0  0  0  0  0  0
    0.2370    9.7300   -8.0740 C   0  0  0  0  0  0  0  0  0  0  0  0
   -2.1080    9.2860   -6.5220 C   0  0  0  0  0  0  0  0  0  0  0  0
   -0.7010    8.7550   -8.4460 C   0  0  0  0  0  0  0  0  0  0  0  0
   -1.8630    8.5350   -7.6760 C   0  0  0  0  0  0  0  0  0  0  0  0
  1  2  1  0
  2  3  2  0
  1  4  1  0
  2  5  1  0
  4  6  2  0
  4  7  1  0
  5  8  1  0
  7  9  2  0
  7 10  1  0
  9 11  1  0
  8 12  1  0
  8 13  1  0
  9 14  1  0
 10 15  2  0
 12 16  2  0
 13 17  2  0
 12 18  1  0
 13 19  1  0
 18 19  2  0
 14 20  2  0
 15 20  1  0
 18 21  1  0
 19 22  1  0
 21 23  2  0
 22 24  2  0
 23 24  1  0
M  END
