mac-x0453-mac-x0124
     RDKit          3D

 14 15  0  0  0  0  0  0  0  0999 V2000
   -6.9060   14.0390    2.2100 N   0  0  0  0  0  0  0  0  0  0  0  0
   -5.9710   13.8630    1.0970 C   0  0  0  0  0  0  0  0  0  0  0  0
   -4.8120   14.8470    1.2240 C   0  0  0  0  0  0  0  0  0  0  0  0
   -4.1300   15.3160   -0.0890 C   0  0  1  0  0  0  0  0  0  0  0  0
   -2.7010   14.8100   -0.4340 C   0  0  0  0  0  0  0  0  0  0  0  0
   -4.9550   14.9500   -1.2560 N   0  0  0  0  0  0  0  0  0  0  0  0
   -2.8050   14.2160   -1.8120 N   0  0  0  0  0  0  0  0  0  0  0  0
   -4.0170   14.8090   -2.3540 C   0  0  0  0  0  0  0  0  0  0  0  0
   -2.1640   13.9550    0.7010 C   0  0  0  0  0  0  0  0  0  0  0  0
   -1.5620   15.8420   -0.5540 C   0  0  0  0  0  0  0  0  0  0  0  0
   -1.6450   14.5110   -2.6910 C   0  0  0  0  0  0  0  0  0  0  0  0
   -1.2120   14.6860    1.5150 N   0  0  0  0  0  0  0  0  0  0  0  0
   -0.2130   15.2640   -0.5010 N   0  0  0  0  0  0  0  0  0  0  0  0
    0.0310   14.7170    0.8050 C   0  0  0  0  0  0  0  0  0  0  0  0
  1  2  1  0
  2  3  1  0
  4  3  1  1
  4  5  1  0
  4  6  1  0
  5  7  1  0
  6  8  1  0
  7  8  1  0
  5  9  1  0
  5 10  1  0
  7 11  1  0
  9 12  1  0
 10 13  1  0
 12 14  1  0
 13 14  1  0
M  END
