mac-x0411-diamond-x0864_0_A
     RDKit          3D

 14 14  0  0  0  0  0  0  0  0999 V2000
    0.7130    8.7060   -7.9290 Cl  0  0  0  0  0  0  0  0  0  0  0  0
   -0.5960    9.3850   -7.0140 C   0  0  0  0  0  0  0  0  0  0  0  0
   -0.4790   10.6860   -6.4820 C   0  0  0  0  0  0  0  0  0  0  0  0
   -1.7650    8.6450   -6.8040 C   0  0  0  0  0  0  0  0  0  0  0  0
    0.7010   11.3720   -6.7160 O   0  0  0  0  0  0  0  0  0  0  0  0
   -1.9980    6.8870   -7.4830 Br  0  0  0  0  0  0  0  0  0  0  0  0
   -1.5610   11.2300   -5.7480 C   0  0  0  0  0  0  0  0  0  0  0  0
   -2.8220    9.1880   -6.0740 C   0  0  0  0  0  0  0  0  0  0  0  0
   -1.5570   12.8150   -5.0540 Cl  0  0  0  0  0  0  0  0  0  0  0  0
    0.9880   12.4900   -5.8620 C   0  0  0  0  0  0  0  0  0  0  0  0
   -2.7210   10.4730   -5.5510 C   0  0  0  0  0  0  0  0  0  0  0  0
    0.8910   12.1280   -4.3850 C   0  0  0  0  0  0  0  0  0  0  0  0
    1.8410   12.7430   -3.6460 O   0  0  0  0  0  0  0  0  0  0  0  0
    0.1010   11.3900   -3.8280 O   0  0  0  0  0  0  0  0  0  0  0  0
  1  2  1  0
  2  3  2  0
  2  4  1  0
  3  5  1  0
  4  6  1  0
  3  7  1  0
  4  8  2  0
  7  9  1  0
  5 10  1  0
  7 11  2  0
  8 11  1  0
 10 12  1  0
 12 13  1  0
 12 14  2  0
M  END
