mac-x0451-mac-x0394
     RDKit          3D

 25 27  0  0  0  0  0  0  0  0999 V2000
   -6.5850   14.8990    2.7690 N   0  0  0  0  0  0  0  0  0  0  0  0
   -5.7920   14.8770    1.6880 C   0  0  0  0  0  0  0  0  0  0  0  0
   -6.2890   15.0470    0.5100 N   0  0  0  0  0  0  0  0  0  0  0  0
   -4.0910   14.6330    1.7490 S   0  0  0  0  0  0  0  0  0  0  0  0
   -5.3060   14.9990   -0.4250 C   0  0  0  0  0  0  0  0  0  0  0  0
   -4.0190   14.7650    0.0520 C   0  0  0  0  0  0  0  0  0  0  0  0
   -5.5160   15.1620   -1.7890 C   0  0  0  0  0  0  0  0  0  0  0  0
   -2.9280   14.6670   -0.8040 C   0  0  0  0  0  0  0  0  0  0  0  0
   -4.4460   15.0660   -2.6480 C   0  0  0  0  0  0  0  0  0  0  0  0
   -3.1770   14.8120   -2.1660 C   0  0  0  0  0  0  0  0  0  0  0  0
   -2.1220   14.6670   -2.9690 O   0  0  0  0  0  0  0  0  0  0  0  0
   -2.3630   13.5070   -3.7870 C   0  0  0  0  0  0  0  0  0  0  0  0
   -3.3790   13.8950   -4.8740 C   0  0  0  0  0  0  0  0  0  0  0  0
   -3.0570   15.2810   -5.4060 C   0  0  0  0  0  0  0  0  0  0  0  0
   -1.5990   15.4810   -5.1660 C   0  0  0  0  0  0  0  0  0  0  0  0
   -0.8100   14.3520   -4.8930 C   0  0  0  0  0  0  0  0  0  0  0  0
   -1.0070   16.7290   -5.2050 C   0  0  0  0  0  0  0  0  0  0  0  0
    0.5540   14.4470   -4.6500 C   0  0  0  0  0  0  0  0  0  0  0  0
    0.3510   16.8270   -4.9720 C   0  0  0  0  0  0  0  0  0  0  0  0
    1.0520   18.3630   -5.0410 Cl  0  0  0  0  0  0  0  0  0  0  0  0
    1.3660   13.2040   -4.3490 C   0  0  0  0  0  0  0  0  0  0  0  0
    1.1370   15.7060   -4.6910 C   0  0  0  0  0  0  0  0  0  0  0  0
    0.9500   12.5110   -3.0640 C   0  0  0  0  0  0  0  0  0  0  0  0
    0.2890   11.3530   -3.2970 O   0  0  0  0  0  0  0  0  0  0  0  0
    1.1390   12.8710   -1.9170 O   0  0  0  0  0  0  0  0  0  0  0  0
  1  2  1  0
  2  3  2  0
  2  4  1  0
  3  5  1  0
  4  6  1  0
  5  6  2  0
  5  7  1  0
  6  8  1  0
  7  9  2  0
  8 10  2  0
  9 10  1  0
 10 11  1  0
 11 12  1  0
 12 13  1  0
 13 14  1  0
 14 15  1  0
 15 16  2  0
 15 17  1  0
 16 18  1  0
 17 19  2  0
 19 20  1  0
 18 21  1  0
 18 22  2  0
 19 22  1  0
 21 23  1  0
 23 24  1  0
 23 25  2  0
M  END
