mac-x0455-mac-x0555
     RDKit          3D

 25 27  0  0  0  0  0  0  0  0999 V2000
   -1.7330   13.4120   -1.8830 C   0  0  0  0  0  0  0  0  0  0  0  0
   -0.8620   13.7860   -3.0900 C   0  0  1  0  0  0  0  0  0  0  0  0
   -1.3110   14.9660   -3.7360 O   0  0  0  0  0  0  0  0  0  0  0  0
    0.5390   14.0700   -2.4690 C   0  0  0  0  0  0  0  0  0  0  0  0
   -0.8150   12.7300   -4.1960 C   0  0  0  0  0  0  0  0  0  0  0  0
    0.9970   15.1810   -2.2550 O   0  0  0  0  0  0  0  0  0  0  0  0
    1.2550   12.9600   -2.1630 O   0  0  0  0  0  0  0  0  0  0  0  0
   -2.4770   14.7570   -4.4950 C   0  0  0  0  0  0  0  0  0  0  0  0
   -1.8610   11.7890   -4.2590 C   0  0  0  0  0  0  0  0  0  0  0  0
    0.2100   12.6520   -5.1530 C   0  0  0  0  0  0  0  0  0  0  0  0
   -3.6660   15.5460   -4.0070 C   0  0  0  0  0  0  0  0  0  0  0  0
   -1.8830   10.8020   -5.2420 C   0  0  0  0  0  0  0  0  0  0  0  0
    0.1860   11.6610   -6.1380 C   0  0  0  0  0  0  0  0  0  0  0  0
   -0.8580   10.7400   -6.1790 C   0  0  0  0  0  0  0  0  0  0  0  0
   -4.1270   15.3160   -2.5720 C   0  0  0  0  0  0  0  0  0  0  0  0
   -5.4930   15.1290   -2.3020 C   0  0  0  0  0  0  0  0  0  0  0  0
   -3.2400   15.2890   -1.4980 C   0  0  0  0  0  0  0  0  0  0  0  0
   -5.9780   14.9230   -1.0170 C   0  0  0  0  0  0  0  0  0  0  0  0
   -3.6990   15.0860   -0.1940 C   0  0  0  0  0  0  0  0  0  0  0  0
   -5.0640   14.9010    0.0530 C   0  0  0  0  0  0  0  0  0  0  0  0
   -7.2980   14.7510   -0.8390 N   0  0  0  0  0  0  0  0  0  0  0  0
   -5.5680   14.6920    1.3470 C   0  0  0  0  0  0  0  0  0  0  0  0
   -7.7420   14.5520    0.4230 C   0  0  0  0  0  0  0  0  0  0  0  0
   -6.9340   14.5110    1.5520 C   0  0  0  0  0  0  0  0  0  0  0  0
   -7.4410   14.3050    2.8360 N   0  0  0  0  0  0  0  0  0  0  0  0
  2  1  1  1
  2  3  1  0
  2  4  1  0
  2  5  1  0
  4  6  2  0
  4  7  1  0
  3  8  1  0
  5  9  2  0
  5 10  1  0
  8 11  1  0
  9 12  1  0
 10 13  2  0
 12 14  2  0
 13 14  1  0
 11 15  1  0
 15 16  2  0
 15 17  1  0
 16 18  1  0
 17 19  2  0
 18 20  2  0
 19 20  1  0
 18 21  1  0
 20 22  1  0
 21 23  2  0
 22 24  2  0
 23 24  1  0
 24 25  1  0
M  END
