mac-x0347-mac-x0397
     RDKit          3D

 21 23  0  0  0  0  0  0  0  0999 V2000
    1.1430   14.4120   -3.4900 O   0  0  0  0  0  0  0  0  0  0  0  0
    0.4530   13.8700   -2.4680 C   0  0  0  0  0  0  0  0  0  0  0  0
    0.9850   13.3770   -1.4960 O   0  0  0  0  0  0  0  0  0  0  0  0
   -1.0120   13.9340   -2.6350 C   0  0  0  0  0  0  0  0  0  0  0  0
   -1.9300   13.7260   -1.5870 C   0  0  0  0  0  0  0  0  0  0  0  0
   -1.4950   14.2230   -3.8990 C   0  0  0  0  0  0  0  0  0  0  0  0
   -3.3220   13.8210   -1.8350 C   0  0  0  0  0  0  0  0  0  0  0  0
   -2.8080   14.3150   -4.1860 N   0  0  0  0  0  0  0  0  0  0  0  0
   -3.6770   14.1170   -3.1660 C   0  0  0  0  0  0  0  0  0  0  0  0
   -4.4640   13.6960   -0.7550 C   0  0  2  0  0  0  0  0  0  0  0  0
   -3.6930   14.4830    0.3210 C   0  0  2  0  0  0  0  0  0  0  0  0
   -5.1860   12.5900   -0.0730 C   0  0  0  0  0  0  0  0  0  0  0  0
   -5.5090   14.5830   -1.3500 C   0  0  0  0  0  0  0  0  0  0  0  0
   -7.2200   14.3140   -1.4150 Cl  0  0  0  0  0  0  0  0  0  0  0  0
   -4.6610   15.0750    1.2900 C   0  0  0  0  0  0  0  0  0  0  0  0
   -5.7870   12.9280    1.0980 C   0  0  0  0  0  0  0  0  0  0  0  0
   -5.0320   15.6170   -1.8580 C   0  0  0  0  0  0  0  0  0  0  0  0
   -2.9520   15.2580   -0.6940 C   0  0  0  0  0  0  0  0  0  0  0  0
   -5.6970   14.2980    1.6610 C   0  0  0  0  0  0  0  0  0  0  0  0
   -3.6200   15.7720   -1.7620 C   0  0  0  0  0  0  0  0  0  0  0  0
   -6.6560   14.7060    2.5500 N   0  0  0  0  0  0  0  0  0  0  0  0
  1  2  1  0
  2  3  2  0
  2  4  1  0
  4  5  2  0
  4  6  1  0
  5  7  1  0
  6  8  2  0
  7  9  2  0
  8  9  1  0
 10  7  1  6
 10 11  1  0
 10 12  1  0
 10 13  1  0
 13 14  1  0
 11 15  1  1
 12 16  2  0
 13 17  2  0
 11 18  1  0
 15 19  2  0
 16 19  1  0
 17 20  1  0
 18 20  2  0
 19 21  1  0
M  END
