mac-x0348-mac-x0321
     RDKit          3D

 24 26  0  0  0  0  0  0  0  0999 V2000
    1.1280   18.5300   -5.6240 C   0  0  0  0  0  0  0  0  0  0  0  0
    0.3600   17.4030   -5.2110 N   0  0  0  0  0  0  0  0  0  0  0  0
    0.7990   16.3820   -4.4190 C   0  0  0  0  0  0  0  0  0  0  0  0
   -0.9310   17.1900   -5.5660 C   0  0  0  0  0  0  0  0  0  0  0  0
   -0.2570   15.5040   -4.2890 C   0  0  0  0  0  0  0  0  0  0  0  0
   -1.3310   16.0000   -5.0020 C   0  0  0  0  0  0  0  0  0  0  0  0
   -1.7740   17.9360   -6.3330 C   0  0  0  0  0  0  0  0  0  0  0  0
   -0.3660   14.2290   -3.5730 C   0  0  1  0  0  0  0  0  0  0  0  0
   -2.6210   15.5040   -5.2050 C   0  0  0  0  0  0  0  0  0  0  0  0
   -3.0270   17.4340   -6.5160 C   0  0  0  0  0  0  0  0  0  0  0  0
    0.7310   13.9770   -2.5770 C   0  0  0  0  0  0  0  0  0  0  0  0
   -1.8500   13.8940   -3.1840 C   0  0  0  0  0  0  0  0  0  0  0  0
   -3.4750   16.2360   -5.9780 C   0  0  0  0  0  0  0  0  0  0  0  0
    0.5580   12.5990   -2.0510 C   0  0  0  0  0  0  0  0  0  0  0  0
   -2.3090   12.9490   -3.8070 O   0  0  0  0  0  0  0  0  0  0  0  0
   -2.9040   14.5110   -2.2530 C   0  0  0  0  0  0  0  0  0  0  0  0
    0.3710   12.4370   -0.8810 O   0  0  0  0  0  0  0  0  0  0  0  0
    0.5930   11.5920   -2.9530 O   0  0  0  0  0  0  0  0  0  0  0  0
   -2.8340   14.7020   -0.8590 C   0  0  0  0  0  0  0  0  0  0  0  0
   -4.1000   14.8980   -2.9050 C   0  0  0  0  0  0  0  0  0  0  0  0
   -3.9410   15.2550   -0.1810 C   0  0  0  0  0  0  0  0  0  0  0  0
   -5.1750   15.4400   -2.2110 C   0  0  0  0  0  0  0  0  0  0  0  0
   -3.9030   15.4910    1.5130 Cl  0  0  0  0  0  0  0  0  0  0  0  0
   -5.0990   15.6200   -0.8510 C   0  0  0  0  0  0  0  0  0  0  0  0
  1  2  1  0
  2  3  1  0
  2  4  1  0
  3  5  2  0
  4  6  2  0
  5  6  1  0
  4  7  1  0
  5  8  1  0
  6  9  1  0
  7 10  2  0
  8 11  1  1
  8 12  1  0
  9 13  2  0
 10 13  1  0
 11 14  1  0
 12 15  2  0
 12 16  1  0
 14 17  2  0
 14 18  1  0
 16 19  2  0
 16 20  1  0
 19 21  1  0
 20 22  2  0
 21 23  1  0
 21 24  2  0
 22 24  1  0
M  END
