mac-x0161-diamond-x0722_0_A
     RDKit          3D

 23 25  0  0  0  0  0  0  0  0999 V2000
   -4.2560   15.1420    1.1950 N   0  0  0  0  0  0  0  0  0  0  0  0
   -3.2980   15.5570    0.1670 C   0  0  1  0  0  0  0  0  0  0  0  0
   -1.8360   15.0650    0.3780 C   0  0  1  0  0  0  0  0  0  0  0  0
   -3.9060   15.1550   -1.0930 N   0  0  0  0  0  0  0  0  0  0  0  0
   -1.6380   13.9820    1.3910 C   0  0  0  0  0  0  0  0  0  0  0  0
   -3.0980   15.2440   -2.3220 C   0  0  0  0  0  0  0  0  0  0  0  0
   -1.2110   14.6040   -0.9410 C   0  0  1  0  0  0  0  0  0  0  0  0
   -0.9000   16.0720    0.8160 N   0  0  0  0  0  0  0  0  0  0  0  0
   -5.2640   15.6750   -1.2710 C   0  0  0  0  0  0  0  0  0  0  0  0
   -1.6570   15.3460   -2.0930 N   0  0  0  0  0  0  0  0  0  0  0  0
    0.2180   14.8740   -0.7070 N   0  0  0  0  0  0  0  0  0  0  0  0
    0.2590   15.2490    0.6890 C   0  0  0  0  0  0  0  0  0  0  0  0
   -6.3400   14.7520   -0.6840 C   0  0  0  0  0  0  0  0  0  0  0  0
   -0.8460   15.0820   -3.2910 C   0  0  0  0  0  0  0  0  0  0  0  0
   -7.5400   14.9980   -0.6650 O   0  0  0  0  0  0  0  0  0  0  0  0
   -5.8850   13.5680   -0.1530 N   0  0  0  0  0  0  0  0  0  0  0  0
   -0.6810   13.6250   -3.5900 C   0  0  0  0  0  0  0  0  0  0  0  0
   -1.1000   12.7970   -4.6140 C   0  0  0  0  0  0  0  0  0  0  0  0
    0.0370   12.8890   -2.6930 O   0  0  0  0  0  0  0  0  0  0  0  0
    0.1040   11.5630   -3.1040 N   0  0  0  0  0  0  0  0  0  0  0  0
   -0.5810   11.5360   -4.2530 C   0  0  0  0  0  0  0  0  0  0  0  0
   -0.7330   10.3910   -4.9580 O   0  0  0  0  0  0  0  0  0  0  0  0
   -1.7500   10.4340   -5.9560 C   0  0  0  0  0  0  0  0  0  0  0  0
  2  1  1  1
  2  3  1  0
  2  4  1  0
  3  5  1  1
  4  6  1  0
  3  7  1  0
  3  8  1  0
  4  9  1  0
  6 10  1  0
  7 10  1  0
  7 11  1  1
  8 12  1  0
 11 12  1  0
  9 13  1  0
 10 14  1  0
 13 15  2  0
 13 16  1  0
 14 17  1  0
 17 18  2  0
 17 19  1  0
 19 20  1  0
 18 21  1  0
 20 21  2  0
 21 22  1  0
 22 23  1  0
M  END
