mac-x1493-mac-x0163
     RDKit          3D

 29 33  0  0  0  0  0  0  0  0999 V2000
   -2.3140   14.1100   -2.8330 O   0  0  0  0  0  0  0  0  0  0  0  0
   -2.6650   15.2210   -2.0380 C   0  0  0  0  0  0  0  0  0  0  0  0
   -2.5550   16.2960   -2.9420 O   0  0  0  0  0  0  0  0  0  0  0  0
   -4.0570   15.0650   -1.5380 C   0  0  0  0  0  0  0  0  0  0  0  0
   -1.7570   15.0570   -0.8640 C   0  0  0  0  0  0  0  0  0  0  0  0
   -4.2070   15.0270   -0.1700 C   0  0  0  0  0  0  0  0  0  0  0  0
   -5.1960   14.9480   -2.3060 C   0  0  0  0  0  0  0  0  0  0  0  0
   -2.1350   15.2380    0.5000 C   0  0  0  0  0  0  0  0  0  0  0  0
   -0.4550   14.6880   -1.0680 C   0  0  0  0  0  0  0  0  0  0  0  0
   -3.3880   15.6380    0.9770 N   0  0  0  0  0  0  0  0  0  0  0  0
   -5.4400   14.8830    0.4140 C   0  0  0  0  0  0  0  0  0  0  0  0
   -6.4310   14.8020   -1.7720 N   0  0  0  0  0  0  0  0  0  0  0  0
    0.3810   14.4940   -0.0530 N   0  0  0  0  0  0  0  0  0  0  0  0
   -1.3080   15.0390    1.5100 N   0  0  0  0  0  0  0  0  0  0  0  0
    0.0740   14.4930   -2.3860 N   0  0  0  0  0  0  0  0  0  0  0  0
   -6.5440   14.7720   -0.4290 C   0  0  0  0  0  0  0  0  0  0  0  0
   -5.5690   14.8530    1.8070 C   0  0  0  0  0  0  0  0  0  0  0  0
   -0.0940   14.6720    1.1820 C   0  0  0  0  0  0  0  0  0  0  0  0
    0.2370   13.1990   -3.0640 C   0  0  0  0  0  0  0  0  0  0  0  0
   -0.1140   15.6900   -3.2380 C   0  0  0  0  0  0  0  0  0  0  0  0
   -7.7840   14.6290    0.1650 C   0  0  0  0  0  0  0  0  0  0  0  0
   -6.8220   14.7110    2.3770 C   0  0  0  0  0  0  0  0  0  0  0  0
    0.8550   13.3480   -4.4520 C   0  0  0  0  0  0  0  0  0  0  0  0
    0.9640   12.1830   -2.1770 C   0  0  0  0  0  0  0  0  0  0  0  0
   -0.9980   12.2420   -2.9100 C   0  0  0  0  0  0  0  0  0  0  0  0
   -0.7880   15.3180   -4.5560 C   0  0  0  0  0  0  0  0  0  0  0  0
   -7.9310   14.5980    1.5590 C   0  0  0  0  0  0  0  0  0  0  0  0
    0.0370   14.2870   -5.3280 C   0  0  0  0  0  0  0  0  0  0  0  0
    0.0030   11.1010   -2.6860 C   0  0  0  0  0  0  0  0  0  0  0  0
  2  1  1  0
  2  3  1  0
  2  4  1  0
  2  5  1  0
  4  6  2  0
  4  7  1  0
  5  8  2  0
  5  9  1  0
  8 10  1  0
  6 11  1  0
  7 12  2  0
  9 13  2  0
  8 14  1  0
  9 15  1  0
 11 16  2  0
 12 16  1  0
 11 17  1  0
 13 18  1  0
 14 18  2  0
 19 15  1  0
 15 20  1  0
 16 21  1  0
 17 22  2  0
 19 23  1  0
 19 24  1  0
 19 25  1  0
 20 26  1  0
 21 27  2  0
 22 27  1  0
 23 28  1  0
 26 28  1  0
 24 29  1  0
 25 29  1  0
M  END
