mac-x0509-mac-x0193
     RDKit          3D

 18 19  0  0  0  0  0  0  0  0999 V2000
   -2.4620    7.3840   -5.9140 O   0  0  0  0  0  0  0  0  0  0  0  0
   -1.4700    7.7770   -6.4940 C   0  0  0  0  0  0  0  0  0  0  0  0
   -0.9750    9.2040   -6.5510 C   0  0  0  0  0  0  0  0  0  0  0  0
   -0.5690    7.0190   -7.2340 N   0  0  0  0  0  0  0  0  0  0  0  0
   -0.0850    9.1500   -7.7510 C   0  0  0  0  0  0  0  0  0  0  0  0
    0.1190    7.8410   -8.1200 C   0  0  0  0  0  0  0  0  0  0  0  0
    0.4870   10.1670   -8.4360 C   0  0  0  0  0  0  0  0  0  0  0  0
    0.8970    7.4980   -9.2050 C   0  0  0  0  0  0  0  0  0  0  0  0
    0.2290   11.4100   -7.9030 N   0  0  0  0  0  0  0  0  0  0  0  0
    1.2720    9.8780   -9.5530 C   0  0  0  0  0  0  0  0  0  0  0  0
    1.4780    8.5420   -9.9360 C   0  0  0  0  0  0  0  0  0  0  0  0
    0.9310   11.8370   -6.7930 C   0  0  0  0  0  0  0  0  0  0  0  0
    0.1740   11.9540   -5.6520 N   0  0  0  0  0  0  0  0  0  0  0  0
    2.1160   12.0800   -6.7290 O   0  0  0  0  0  0  0  0  0  0  0  0
    0.8020   12.7830   -4.6370 C   0  0  0  0  0  0  0  0  0  0  0  0
    0.7590   12.1740   -3.2410 C   0  0  0  0  0  0  0  0  0  0  0  0
    0.3990   10.8790   -3.1800 O   0  0  0  0  0  0  0  0  0  0  0  0
    1.0310   12.7770   -2.2160 O   0  0  0  0  0  0  0  0  0  0  0  0
  1  2  2  0
  2  3  1  0
  2  4  1  0
  3  5  1  0
  4  6  1  0
  5  6  2  0
  5  7  1  0
  6  8  1  0
  7  9  1  0
  7 10  2  0
  8 11  2  0
 10 11  1  0
  9 12  1  0
 12 13  1  0
 12 14  2  0
 13 15  1  0
 15 16  1  0
 16 17  1  0
 16 18  2  0
M  END
