mac-x0404-mac-x0283
     RDKit          3D

 27 30  0  0  0  0  0  0  0  0999 V2000
    1.3020   13.0320   -2.1210 O   0  0  0  0  0  0  0  0  0  0  0  0
    1.2530   12.2510   -3.2170 C   0  0  0  0  0  0  0  0  0  0  0  0
    0.5920   11.2230   -3.1790 O   0  0  0  0  0  0  0  0  0  0  0  0
    2.0720   12.7500   -4.4220 C   0  0  0  0  0  0  0  0  0  0  0  0
    1.6850   13.9590   -5.0400 O   0  0  0  0  0  0  0  0  0  0  0  0
    0.3680   14.2490   -4.9870 C   0  0  0  0  0  0  0  0  0  0  0  0
    0.0070   15.6080   -5.1100 C   0  0  0  0  0  0  0  0  0  0  0  0
   -0.5770   13.2590   -4.8100 C   0  0  0  0  0  0  0  0  0  0  0  0
   -1.3410   15.9720   -5.0250 C   0  0  0  0  0  0  0  0  0  0  0  0
   -1.8920   13.5990   -4.7170 C   0  0  0  0  0  0  0  0  0  0  0  0
    0.9700   16.5990   -5.3080 C   0  0  0  0  0  0  0  0  0  0  0  0
   -2.2720   14.9160   -4.8040 C   0  0  0  0  0  0  0  0  0  0  0  0
   -1.6530   17.3520   -5.1500 C   0  0  0  0  0  0  0  0  0  0  0  0
    0.6550   17.9460   -5.4310 C   0  0  0  0  0  0  0  0  0  0  0  0
   -3.7030   15.1130   -4.5840 C   0  0  0  0  0  0  0  0  0  0  0  0
   -0.6700   18.3260   -5.3520 C   0  0  0  0  0  0  0  0  0  0  0  0
   -3.3870   15.5880   -3.1670 C   0  0  0  0  0  0  0  0  0  0  0  0
   -4.2130   15.3300   -1.9450 C   0  0  0  0  0  0  0  0  0  0  0  0
   -5.5760   15.1990   -2.0700 C   0  0  0  0  0  0  0  0  0  0  0  0
   -3.5870   15.2360   -0.6750 C   0  0  0  0  0  0  0  0  0  0  0  0
   -6.2750   14.9870   -0.9040 C   0  0  0  0  0  0  0  0  0  0  0  0
   -4.3300   15.0200    0.4960 C   0  0  0  0  0  0  0  0  0  0  0  0
   -7.6130   14.8390   -0.8360 O   0  0  0  0  0  0  0  0  0  0  0  0
   -5.7250   14.8950    0.3630 C   0  0  0  0  0  0  0  0  0  0  0  0
   -6.8690   14.6880    1.1880 C   0  0  0  0  0  0  0  0  0  0  0  0
   -7.9920   14.6500    0.4730 N   0  0  0  0  0  0  0  0  0  0  0  0
   -6.8550   14.5540    2.5230 N   0  0  0  0  0  0  0  0  0  0  0  0
  1  2  1  0
  2  3  2  0
  2  4  1  0
  4  5  1  0
  5  6  1  0
  6  7  2  0
  6  8  1  0
  7  9  1  0
  8 10  2  0
  7 11  1  0
  9 12  2  0
 10 12  1  0
  9 13  1  0
 11 14  2  0
 12 15  1  0
 13 16  2  0
 14 16  1  0
 15 17  1  0
 17 18  1  0
 18 19  2  0
 18 20  1  0
 19 21  1  0
 20 22  2  0
 21 23  1  0
 21 24  2  0
 22 24  1  0
 24 25  1  0
 23 26  1  0
 25 26  2  0
 25 27  1  0
M  END
