mac-x0472-diamond-x0465_0_A
     RDKit          3D

 30 32  0  0  0  0  0  0  0  0999 V2000
   -4.2620   15.4370   -2.2230 O   0  0  0  0  0  0  0  0  0  0  0  0
   -3.2440   14.4360   -2.4750 S   0  0  0  0  0  0  0  0  0  0  0  0
   -2.5490   14.4020   -3.7480 O   0  0  0  0  0  0  0  0  0  0  0  0
   -2.1310   14.3530   -1.1860 N   0  0  0  0  0  0  0  0  0  0  0  0
   -4.0510   12.8490   -2.2440 C   0  0  0  0  0  0  0  0  0  0  0  0
   -0.6900   14.7270   -1.2800 C   0  0  0  0  0  0  0  0  0  0  0  0
   -2.7600   14.6740    0.0700 C   0  0  0  0  0  0  0  0  0  0  0  0
   -3.3560   11.6870   -2.5970 C   0  0  0  0  0  0  0  0  0  0  0  0
   -5.3470   12.7730   -1.7200 C   0  0  0  0  0  0  0  0  0  0  0  0
    0.1950   13.4700   -1.2860 C   0  0  0  0  0  0  0  0  0  0  0  0
   -2.1680   14.3800    1.1910 N   0  0  0  0  0  0  0  0  0  0  0  0
   -4.2840   15.4400    0.2200 S   0  0  0  0  0  0  0  0  0  0  0  0
   -3.9660   10.4420   -2.4290 C   0  0  0  0  0  0  0  0  0  0  0  0
   -5.9510   11.5190   -1.5520 C   0  0  0  0  0  0  0  0  0  0  0  0
    0.5950   13.3670   -2.6690 N   0  0  0  0  0  0  0  0  0  0  0  0
   -4.0550   15.3160    1.9050 C   0  0  0  0  0  0  0  0  0  0  0  0
   -2.9280   14.7520    2.2610 N   0  0  0  0  0  0  0  0  0  0  0  0
   -5.2600   10.3610   -1.9090 C   0  0  0  0  0  0  0  0  0  0  0  0
    0.6610   12.2770   -3.3250 C   0  0  0  0  0  0  0  0  0  0  0  0
    1.0360   12.3900   -4.7980 C   0  0  1  0  0  0  0  0  0  0  0  0
    0.4090   11.0400   -2.8230 O   0  0  0  0  0  0  0  0  0  0  0  0
    2.4420   12.9370   -4.9540 C   0  0  0  0  0  0  0  0  0  0  0  0
    0.6740   11.3780   -5.7240 O   0  0  0  0  0  0  0  0  0  0  0  0
   -0.5620   10.7950   -5.7700 C   0  0  0  0  0  0  0  0  0  0  0  0
   -0.6690    9.6880   -6.6310 C   0  0  0  0  0  0  0  0  0  0  0  0
   -1.6950   11.1840   -5.0640 C   0  0  0  0  0  0  0  0  0  0  0  0
    0.3940    9.2750   -7.3390 F   0  0  0  0  0  0  0  0  0  0  0  0
   -1.8590    8.9870   -6.7830 C   0  0  0  0  0  0  0  0  0  0  0  0
   -2.9030   10.4820   -5.2130 C   0  0  0  0  0  0  0  0  0  0  0  0
   -2.9830    9.3850   -6.0700 C   0  0  0  0  0  0  0  0  0  0  0  0
  1  2  2  0
  2  3  2  0
  2  4  1  0
  2  5  1  0
  4  6  1  0
  4  7  1  0
  5  8  2  0
  5  9  1  0
  6 10  1  0
  7 11  2  0
  7 12  1  0
  8 13  1  0
  9 14  2  0
 10 15  1  0
 12 16  1  0
 11 17  1  0
 16 17  2  0
 13 18  2  0
 14 18  1  0
 15 19  2  3
 19 20  1  0
 19 21  1  0
 20 22  1  1
 20 23  1  0
 23 24  1  0
 24 25  2  0
 24 26  1  0
 25 27  1  0
 25 28  1  0
 26 29  2  0
 28 30  2  0
 29 30  1  0
M  END
