mac-x0271-mac-x0123
     RDKit          3D

 17 19  0  0  0  0  0  0  0  0999 V2000
   -3.9840   14.5030   -3.9360 O   0  0  0  0  0  0  0  0  0  0  0  0
   -2.8370   15.1200   -3.3850 C   0  0  0  0  0  0  0  0  0  0  0  0
   -2.6480   14.6470   -1.9760 C   0  0  1  0  0  0  0  0  0  0  0  0
   -3.5980   15.3120   -1.0380 C   0  0  1  0  0  0  0  0  0  0  0  0
   -3.0180   13.2000   -1.8070 C   0  0  0  0  0  0  0  0  0  0  0  0
   -4.8840   14.5640   -1.3330 C   0  0  1  0  0  0  0  0  0  0  0  0
   -3.5000   15.2430    0.4680 C   0  0  2  0  0  0  0  0  0  0  0  0
   -4.4820   13.2120   -1.6810 N   0  0  0  0  0  0  0  0  0  0  0  0
   -3.3660   13.9460    1.1040 N   0  0  0  0  0  0  0  0  0  0  0  0
   -5.8270   14.9570   -0.1590 C   0  0  1  0  0  0  0  0  0  0  0  0
   -4.8560   15.8370    0.6780 C   0  0  0  0  0  0  0  0  0  0  0  0
   -6.9630   15.7020   -0.9150 C   0  0  0  0  0  0  0  0  0  0  0  0
   -6.3800   13.9700    0.8570 C   0  0  0  0  0  0  0  0  0  0  0  0
   -7.6580   13.9880    1.2550 C   0  0  0  0  0  0  0  0  0  0  0  0
   -8.3180   15.4870   -0.4800 O   0  0  0  0  0  0  0  0  0  0  0  0
   -8.6230   14.9480    0.7150 C   0  0  0  0  0  0  0  0  0  0  0  0
   -9.6480   15.2250    1.3160 O   0  0  0  0  0  0  0  0  0  0  0  0
  1  2  1  0
  3  2  1  6
  4  3  1  6
  3  5  1  0
  4  6  1  0
  4  7  1  0
  5  8  1  0
  6  8  1  1
  7  9  1  6
  6 10  1  0
  7 11  1  0
 10 11  1  1
 10 12  1  0
 10 13  1  0
 13 14  2  0
 12 15  1  0
 14 16  1  0
 15 16  1  0
 16 17  2  0
M  END
