mac-x0271-mac-x0161
     RDKit          3D

 29 33  0  0  0  0  0  0  0  0999 V2000
   -4.9750   15.1290   -3.9000 O   0  0  0  0  0  0  0  0  0  0  0  0
   -5.3380   15.0420   -2.5940 C   0  0  0  0  0  0  0  0  0  0  0  0
   -4.4110   14.6570   -1.6940 C   0  0  0  0  0  0  0  0  0  0  0  0
   -6.6250   15.3290   -2.1950 C   0  0  0  0  0  0  0  0  0  0  0  0
   -6.9380   15.2040   -0.8460 C   0  0  0  0  0  0  0  0  0  0  0  0
   -4.6890   14.5130   -0.3480 C   0  0  0  0  0  0  0  0  0  0  0  0
   -6.0010   14.7980    0.1110 C   0  0  0  0  0  0  0  0  0  0  0  0
   -8.2680   15.4990   -0.4820 O   0  0  0  0  0  0  0  0  0  0  0  0
   -3.5000   14.0240    0.4120 C   0  0  1  0  0  0  0  0  0  0  0  0
   -6.4920   14.6960    1.4800 C   0  0  0  0  0  0  0  0  0  0  0  0
   -8.7840   15.0170    0.7040 C   0  0  0  0  0  0  0  0  0  0  0  0
   -3.1000   12.9700   -0.5420 N   0  0  0  0  0  0  0  0  0  0  0  0
   -2.2450   14.8800    0.6310 C   0  0  2  0  0  0  0  0  0  0  0  0
   -9.9750   14.7980    0.8840 O   0  0  0  0  0  0  0  0  0  0  0  0
   -7.7950   14.7910    1.7620 C   0  0  0  0  0  0  0  0  0  0  0  0
   -2.8230   13.4940   -1.8930 C   0  0  0  0  0  0  0  0  0  0  0  0
   -1.3380   14.4630   -0.5280 C   0  0  1  0  0  0  0  0  0  0  0  0
   -1.3180   14.6260    1.7210 N   0  0  0  0  0  0  0  0  0  0  0  0
   -1.9390   14.6520   -1.8040 N   0  0  0  0  0  0  0  0  0  0  0  0
   -0.1530   15.1830   -0.2520 N   0  0  0  0  0  0  0  0  0  0  0  0
    0.0010   14.6450    1.0760 C   0  0  0  0  0  0  0  0  0  0  0  0
   -0.9500   14.7170   -2.8890 C   0  0  0  0  0  0  0  0  0  0  0  0
   -0.6610   13.3620   -3.4130 C   0  0  0  0  0  0  0  0  0  0  0  0
   -1.0560   12.6470   -4.5220 C   0  0  0  0  0  0  0  0  0  0  0  0
    0.1790   12.5930   -2.6620 O   0  0  0  0  0  0  0  0  0  0  0  0
    0.3430   11.3620   -3.2670 N   0  0  0  0  0  0  0  0  0  0  0  0
   -0.4020   11.4160   -4.3710 C   0  0  0  0  0  0  0  0  0  0  0  0
   -0.4910   10.3710   -5.2230 O   0  0  0  0  0  0  0  0  0  0  0  0
   -1.7050   10.3250   -5.9630 C   0  0  0  0  0  0  0  0  0  0  0  0
  1  2  1  0
  2  3  2  0
  2  4  1  0
  4  5  2  0
  3  6  1  0
  5  7  1  0
  6  7  2  0
  5  8  1  0
  9  6  1  6
  7 10  1  0
  8 11  1  0
  9 12  1  0
  9 13  1  0
 11 14  2  0
 10 15  2  0
 11 15  1  0
 12 16  1  0
 13 17  1  0
 13 18  1  1
 16 19  1  0
 17 19  1  0
 17 20  1  6
 18 21  1  0
 20 21  1  0
 19 22  1  0
 22 23  1  0
 23 24  2  0
 23 25  1  0
 25 26  1  0
 24 27  1  0
 26 27  2  0
 27 28  1  0
 28 29  1  0
M  END
