mac-x0115-mac-x0303
     RDKit          3D

 29 32  0  0  0  0  0  0  0  0999 V2000
   -1.4180   18.6050   -5.1840 C   0  0  0  0  0  0  0  0  0  0  0  0
   -0.4170   17.6760   -5.8360 C   0  0  0  0  0  0  0  0  0  0  0  0
    1.0100   18.1130   -5.5630 C   0  0  0  0  0  0  0  0  0  0  0  0
   -0.6710   16.3830   -5.2860 O   0  0  0  0  0  0  0  0  0  0  0  0
    0.4760   15.6890   -4.7890 C   0  0  0  0  0  0  0  0  0  0  0  0
    0.0050   14.3510   -4.1970 C   0  0  0  0  0  0  0  0  0  0  0  0
   -0.0870   14.3620   -2.7140 N   0  0  0  0  0  0  0  0  0  0  0  0
    1.1410   14.2620   -1.9900 C   0  0  0  0  0  0  0  0  0  0  0  0
   -1.2550   14.8370   -2.0400 C   0  0  0  0  0  0  0  0  0  0  0  0
    2.6380   13.7320   -2.5260 S   0  0  0  0  0  0  0  0  0  0  0  0
    1.1290   14.6420   -0.6880 N   0  0  0  0  0  0  0  0  0  0  0  0
   -1.1370   15.2250   -0.7730 C   0  0  0  0  0  0  0  0  0  0  0  0
   -2.6870   14.8970   -2.5390 C   0  0  0  0  0  0  0  0  0  0  0  0
    0.0880   15.1390   -0.0320 C   0  0  0  0  0  0  0  0  0  0  0  0
   -2.1160   15.7000   -0.0500 N   0  0  0  0  0  0  0  0  0  0  0  0
   -3.7280   15.1280   -1.6420 C   0  0  0  0  0  0  0  0  0  0  0  0
    0.1020   15.4640    1.1300 O   0  0  0  0  0  0  0  0  0  0  0  0
   -3.3460   15.3810   -0.2750 C   0  0  0  0  0  0  0  0  0  0  0  0
   -5.1760   15.0930   -1.8960 C   0  0  0  0  0  0  0  0  0  0  0  0
   -6.0150   14.9950   -0.8150 C   0  0  0  0  0  0  0  0  0  0  0  0
   -4.1430   15.3080    0.7180 C   0  0  0  0  0  0  0  0  0  0  0  0
   -5.4760   15.0040    0.5050 C   0  0  0  0  0  0  0  0  0  0  0  0
   -7.3800   14.8600   -0.6180 N   0  0  0  0  0  0  0  0  0  0  0  0
   -7.4750   14.6930    0.6990 C   0  0  0  0  0  0  0  0  0  0  0  0
   -6.3290   14.7620    1.3870 N   0  0  0  0  0  0  0  0  0  0  0  0
   -8.9630   14.4640    1.6720 S   0  0  0  0  0  0  0  0  0  0  0  0
   -8.7870   12.9060    2.3450 N   0  0  0  0  0  0  0  0  0  0  0  0
   -8.8630   15.3980    2.7740 O   0  0  0  0  0  0  0  0  0  0  0  0
  -10.0960   14.4050    0.7880 O   0  0  0  0  0  0  0  0  0  0  0  0
  1  2  1  0
  2  3  1  0
  2  4  1  0
  4  5  1  0
  5  6  1  0
  6  7  1  0
  7  8  1  0
  7  9  1  0
  8 10  2  0
  8 11  1  0
  9 12  2  0
  9 13  1  0
 11 14  1  0
 12 14  1  0
 12 15  1  0
 13 16  2  0
 14 17  2  0
 15 18  1  0
 16 18  1  0
 16 19  1  0
 19 20  2  0
 18 21  2  0
 20 22  1  0
 21 22  1  0
 20 23  1  0
 23 24  2  0
 22 25  2  0
 24 25  1  0
 24 26  1  0
 26 27  1  0
 26 28  2  0
 26 29  2  0
M  END
