mac-x0115-diamond-x0910_1_A
     RDKit          3D

 22 24  0  0  0  0  0  0  0  0999 V2000
   -1.4220   18.5880   -5.1810 C   0  0  0  0  0  0  0  0  0  0  0  0
   -0.4270   17.6440   -5.8210 C   0  0  0  0  0  0  0  0  0  0  0  0
    1.0040   18.0870   -5.5670 C   0  0  0  0  0  0  0  0  0  0  0  0
   -0.6660   16.3550   -5.2510 O   0  0  0  0  0  0  0  0  0  0  0  0
    0.4450   15.7170   -4.6060 C   0  0  0  0  0  0  0  0  0  0  0  0
   -0.0400   14.5110   -3.7840 C   0  0  0  0  0  0  0  0  0  0  0  0
   -0.2830   14.7790   -2.3390 N   0  0  0  0  0  0  0  0  0  0  0  0
    0.6920   14.5670   -1.3740 C   0  0  0  0  0  0  0  0  0  0  0  0
   -1.6220   15.1790   -1.8830 C   0  0  2  0  0  0  0  0  0  0  0  0
    2.2900   14.1500   -1.7000 S   0  0  0  0  0  0  0  0  0  0  0  0
    0.2950   14.7180   -0.0450 N   0  0  0  0  0  0  0  0  0  0  0  0
   -2.0690   14.4340   -0.6360 C   0  0  1  0  0  0  0  0  0  0  0  0
   -2.7600   14.8480   -2.7930 C   0  0  0  0  0  0  0  0  0  0  0  0
   -1.0250   14.7140    0.4360 C   0  0  0  0  0  0  0  0  0  0  0  0
   -3.6200   14.7700   -0.5900 C   0  0  2  0  0  0  0  0  0  0  0  0
   -3.8750   14.6160   -2.0620 C   0  0  0  0  0  0  0  0  0  0  0  0
   -1.2750   14.8930    1.6380 O   0  0  0  0  0  0  0  0  0  0  0  0
   -4.2500   16.0250   -0.2570 N   0  0  0  0  0  0  0  0  0  0  0  0
   -4.4930   13.8240    0.1740 N   0  0  0  0  0  0  0  0  0  0  0  0
   -5.5980   14.5310    0.2400 C   0  0  0  0  0  0  0  0  0  0  0  0
   -5.4870   15.7540   -0.3530 N   0  0  0  0  0  0  0  0  0  0  0  0
   -6.7470   14.0920    0.8450 N   0  0  0  0  0  0  0  0  0  0  0  0
  1  2  1  0
  2  3  1  0
  2  4  1  0
  4  5  1  0
  5  6  1  0
  6  7  1  0
  7  8  1  0
  7  9  1  0
  8 10  2  0
  8 11  1  0
  9 12  1  0
  9 13  1  6
 11 14  1  0
 12 14  1  1
 12 15  1  0
 13 16  2  0
 15 16  1  6
 14 17  2  0
 15 18  1  0
 15 19  1  0
 19 20  2  0
 18 21  2  0
 20 21  1  0
 20 22  1  0
M  END
