mac-x0303-mac-x0333
     RDKit          3D

 14 15  0  0  0  0  0  0  0  0999 V2000
   -8.4770   12.9650    2.6080 N   0  0  0  0  0  0  0  0  0  0  0  0
   -8.5830   14.5170    1.9650 S   0  0  0  0  0  0  0  0  0  0  0  0
   -8.4210   15.4740    3.0360 O   0  0  0  0  0  0  0  0  0  0  0  0
   -9.7030   14.5540    1.0580 O   0  0  0  0  0  0  0  0  0  0  0  0
   -7.1450   14.7090    0.9630 C   0  0  0  0  0  0  0  0  0  0  0  0
   -7.1490   14.9070   -0.3960 N   0  0  0  0  0  0  0  0  0  0  0  0
   -5.9170   14.6850    1.4360 N   0  0  0  0  0  0  0  0  0  0  0  0
   -5.8350   15.0110   -0.8080 C   0  0  0  0  0  0  0  0  0  0  0  0
   -5.0990   14.8660    0.3640 C   0  0  0  0  0  0  0  0  0  0  0  0
   -5.2300   15.2100   -2.0560 C   0  0  0  0  0  0  0  0  0  0  0  0
   -3.7060   14.9130    0.3280 C   0  0  0  0  0  0  0  0  0  0  0  0
   -3.8260   15.2490   -2.0590 C   0  0  0  0  0  0  0  0  0  0  0  0
   -3.0810   15.1030   -0.8990 C   0  0  0  0  0  0  0  0  0  0  0  0
   -3.1720   15.4350   -3.2470 O   0  0  0  0  0  0  0  0  0  0  0  0
  2  1  1  0
  2  3  2  0
  2  4  2  0
  2  5  1  0
  5  6  1  0
  5  7  2  0
  6  8  1  0
  7  9  1  0
  8  9  2  0
  8 10  1  0
  9 11  1  0
 10 12  2  0
 11 13  2  0
 12 13  1  0
 12 14  1  0
M  END
