mac-x0283-mac-x0587
     RDKit          3D

 20 21  0  0  0  0  0  0  0  0999 V2000
   -6.5220   14.8420    2.3120 N   0  0  0  0  0  0  0  0  0  0  0  0
   -6.3550   14.7830    0.9640 C   0  0  0  0  0  0  0  0  0  0  0  0
   -7.3730   14.6170    0.1500 N   0  0  0  0  0  0  0  0  0  0  0  0
   -5.1030   14.9000    0.1900 C   0  0  0  0  0  0  0  0  0  0  0  0
   -6.8290   14.6280   -1.1800 O   0  0  0  0  0  0  0  0  0  0  0  0
   -5.6220   15.3860   -1.0840 C   0  0  2  0  0  0  0  0  0  0  0  0
   -3.8160   14.6460    0.4890 C   0  0  0  0  0  0  0  0  0  0  0  0
   -4.6390   15.2600   -2.2040 C   0  0  0  0  0  0  0  0  0  0  0  0
   -2.8010   14.8540   -0.6130 C   0  0  0  0  0  0  0  0  0  0  0  0
   -1.5930   14.8570   -0.3620 O   0  0  0  0  0  0  0  0  0  0  0  0
   -3.3100   15.0250   -2.0290 C   0  0  0  0  0  0  0  0  0  0  0  0
   -2.4700   14.9630   -3.3270 C   0  0  0  0  0  0  0  0  0  0  0  0
   -0.9330   14.6770   -3.3840 C   0  0  2  0  0  0  0  0  0  0  0  0
   -3.0970   15.1630   -4.3710 O   0  0  0  0  0  0  0  0  0  0  0  0
   -0.1310   15.9040   -3.8510 C   0  0  0  0  0  0  0  0  0  0  0  0
   -0.4730   13.4130   -4.6630 S   0  0  0  0  0  0  0  0  0  0  0  0
   -0.7470   11.8400   -3.7910 C   0  0  0  0  0  0  0  0  0  0  0  0
    0.3960   11.4680   -2.8850 C   0  0  0  0  0  0  0  0  0  0  0  0
    0.6270   10.3410   -2.4710 O   0  0  0  0  0  0  0  0  0  0  0  0
    1.1820   12.5090   -2.5270 O   0  0  0  0  0  0  0  0  0  0  0  0
  1  2  1  0
  2  3  2  0
  2  4  1  0
  3  5  1  0
  4  6  1  0
  5  6  1  0
  4  7  2  0
  6  8  1  6
  7  9  1  0
  9 10  2  0
  8 11  2  0
  9 11  1  0
 11 12  1  0
 12 13  1  0
 12 14  2  0
 13 15  1  6
 13 16  1  0
 16 17  1  0
 17 18  1  0
 18 19  2  0
 18 20  1  0
M  END
