mac-x0224-mac-x0284
     RDKit          3D

 12 12  0  0  0  0  0  0  0  0999 V2000
   -5.1390   14.9400    1.2340 C   0  0  0  0  0  0  0  0  0  0  0  0
   -3.3490   15.1740    1.2560 S   0  0  0  0  0  0  0  0  0  0  0  0
   -2.9080   14.9930   -0.4540 C   0  0  0  0  0  0  0  0  0  0  0  0
   -1.6130   14.6410   -0.8160 C   0  0  0  0  0  0  0  0  0  0  0  0
   -3.8660   15.2050   -1.4510 C   0  0  0  0  0  0  0  0  0  0  0  0
   -1.2500   14.5000   -2.1590 C   0  0  0  0  0  0  0  0  0  0  0  0
   -3.5220   15.0680   -2.7990 C   0  0  0  0  0  0  0  0  0  0  0  0
    0.1680   14.1240   -2.4090 C   0  0  0  0  0  0  0  0  0  0  0  0
   -2.2160   14.7130   -3.1490 C   0  0  0  0  0  0  0  0  0  0  0  0
   -1.8860   14.5800   -4.4740 O   0  0  0  0  0  0  0  0  0  0  0  0
    0.9630   13.9870   -1.4990 O   0  0  0  0  0  0  0  0  0  0  0  0
    0.5070   13.9400   -3.6950 O   0  0  0  0  0  0  0  0  0  0  0  0
  1  2  1  0
  2  3  1  0
  3  4  2  0
  3  5  1  0
  4  6  1  0
  5  7  2  0
  6  8  1  0
  6  9  2  0
  7  9  1  0
  9 10  1  0
  8 11  2  0
  8 12  1  0
M  END
