mac-x0373-diamond-x0128_0_A
     RDKit          3D

 31 34  0  0  0  0  0  0  0  0999 V2000
    1.1260   13.5920   -1.8230 O   0  0  0  0  0  0  0  0  0  0  0  0
    0.1630   14.3900   -2.3230 C   0  0  0  0  0  0  0  0  0  0  0  0
    0.4390   15.5140   -2.6870 O   0  0  0  0  0  0  0  0  0  0  0  0
   -1.1730   13.7000   -2.3210 C   0  0  2  0  0  0  0  0  0  0  0  0
   -1.5490   12.8390   -3.5030 C   0  0  0  0  0  0  0  0  0  0  0  0
   -2.3400   14.3110   -1.5320 C   0  0  2  0  0  0  0  0  0  0  0  0
   -0.8970   12.8990   -4.7420 C   0  0  0  0  0  0  0  0  0  0  0  0
   -2.6000   11.9350   -3.3170 C   0  0  0  0  0  0  0  0  0  0  0  0
   -3.3100   15.3880   -2.0270 C   0  0  0  0  0  0  0  0  0  0  0  0
   -1.9290   14.6410   -0.1340 C   0  0  0  0  0  0  0  0  0  0  0  0
   -1.3070   12.0470   -5.7740 C   0  0  0  0  0  0  0  0  0  0  0  0
   -3.0040   11.0920   -4.3400 C   0  0  0  0  0  0  0  0  0  0  0  0
   -4.3240   15.6680   -1.1700 C   0  0  0  0  0  0  0  0  0  0  0  0
   -2.9110   14.8970    0.6800 C   0  0  0  0  0  0  0  0  0  0  0  0
   -2.3550   11.1480   -5.5690 C   0  0  0  0  0  0  0  0  0  0  0  0
   -4.3010   14.8330    0.1030 C   0  0  2  0  0  0  0  0  0  0  0  0
   -4.5580   13.4100   -0.4380 C   0  0  0  0  0  0  0  0  0  0  0  0
   -5.1940   15.0860    1.3020 C   0  0  0  0  0  0  0  0  0  0  0  0
   -5.9970   13.0290   -0.5530 C   0  0  0  0  0  0  0  0  0  0  0  0
   -6.6680   14.6470    1.1730 C   0  0  2  0  0  0  0  0  0  0  0  0
   -7.1780   14.2790    2.4710 N   0  0  0  0  0  0  0  0  0  0  0  0
   -6.9410   13.5830    0.1850 C   0  0  0  0  0  0  0  0  0  0  0  0
   -8.0570   15.1510    3.0580 C   0  0  0  0  0  0  0  0  0  0  0  0
   -8.9920   15.6490    2.4500 O   0  0  0  0  0  0  0  0  0  0  0  0
   -7.7090   15.3570    4.3660 N   0  0  0  0  0  0  0  0  0  0  0  0
   -8.4650   16.0670    5.3270 C   0  0  0  0  0  0  0  0  0  0  0  0
   -9.1400   17.2190    4.9160 C   0  0  0  0  0  0  0  0  0  0  0  0
   -8.6000   15.7100    6.6660 C   0  0  0  0  0  0  0  0  0  0  0  0
   -9.9080   17.9990    5.7110 N   0  0  0  0  0  0  0  0  0  0  0  0
   -9.3840   16.4960    7.5150 C   0  0  0  0  0  0  0  0  0  0  0  0
  -10.0120   17.6190    6.9970 C   0  0  0  0  0  0  0  0  0  0  0  0
  1  2  1  0
  2  3  2  0
  4  2  1  6
  4  5  1  0
  4  6  1  0
  5  7  2  0
  5  8  1  0
  6  9  1  6
  6 10  1  0
  7 11  1  0
  8 12  2  0
  9 13  2  0
 10 14  2  0
 11 15  2  0
 12 15  1  0
 16 13  1  6
 14 16  1  0
 16 17  1  0
 16 18  1  0
 17 19  1  0
 18 20  1  0
 20 21  1  1
 19 22  2  0
 20 22  1  0
 21 23  1  0
 23 24  2  0
 23 25  1  0
 25 26  1  0
 26 27  2  0
 26 28  1  0
 27 29  1  0
 28 30  2  0
 29 31  2  0
 30 31  1  0
M  END
