mac-x0193-mac-x0179
     RDKit          3D

 24 27  0  0  0  0  0  0  0  0999 V2000
    0.5520   11.0510   -2.7900 O   0  0  0  0  0  0  0  0  0  0  0  0
    0.6810   12.0360   -3.7110 C   0  0  0  0  0  0  0  0  0  0  0  0
    0.9970   13.1470   -3.3220 O   0  0  0  0  0  0  0  0  0  0  0  0
    0.3900   11.5100   -5.1540 C   0  0  2  0  0  0  0  0  0  0  0  0
    1.4700   11.7430   -6.0920 N   0  0  0  0  0  0  0  0  0  0  0  0
   -0.7750   11.9850   -5.8030 N   0  0  0  0  0  0  0  0  0  0  0  0
    1.2230   11.4920   -7.4020 C   0  0  0  0  0  0  0  0  0  0  0  0
   -0.8780   11.8060   -7.2180 C   0  0  1  0  0  0  0  0  0  0  0  0
   -2.0040   11.5420   -5.5040 C   0  0  0  0  0  0  0  0  0  0  0  0
    0.2000   11.5590   -7.9850 N   0  0  0  0  0  0  0  0  0  0  0  0
    2.1720   11.1080   -8.2040 N   0  0  0  0  0  0  0  0  0  0  0  0
   -2.8840   12.1160   -4.9540 O   0  0  0  0  0  0  0  0  0  0  0  0
   -1.3170   10.4110   -7.2370 C   0  0  0  0  0  0  0  0  0  0  0  0
   -2.0450   10.2060   -6.1200 C   0  0  0  0  0  0  0  0  0  0  0  0
    1.7560   10.1290   -9.2510 C   0  0  0  0  0  0  0  0  0  0  0  0
   -1.0720    9.4250   -8.1690 C   0  0  0  0  0  0  0  0  0  0  0  0
   -2.5980    8.9820   -5.8280 C   0  0  0  0  0  0  0  0  0  0  0  0
    1.4810    8.7600   -8.6780 C   0  0  0  0  0  0  0  0  0  0  0  0
    0.6010   10.5180  -10.1810 C   0  0  0  0  0  0  0  0  0  0  0  0
   -1.6070    8.1740   -7.9260 C   0  0  0  0  0  0  0  0  0  0  0  0
   -2.3670    7.9520   -6.7600 C   0  0  0  0  0  0  0  0  0  0  0  0
    1.7720    7.7610   -9.7890 C   0  0  0  0  0  0  0  0  0  0  0  0
    0.3720    9.4010  -11.2110 C   0  0  0  0  0  0  0  0  0  0  0  0
    1.4770    8.3300  -11.1870 C   0  0  0  0  0  0  0  0  0  0  0  0
  1  2  1  0
  2  3  2  0
  4  2  1  1
  4  5  1  0
  4  6  1  0
  5  7  1  0
  6  8  1  0
  6  9  1  0
  7 10  2  0
  8 10  1  6
  7 11  1  0
  9 12  2  0
  8 13  1  0
  9 14  1  0
 13 14  2  0
 11 15  1  0
 13 16  1  0
 14 17  1  0
 15 18  1  0
 15 19  1  0
 16 20  2  0
 17 21  2  0
 20 21  1  0
 18 22  1  0
 19 23  1  0
 22 24  1  0
 23 24  1  0
M  END
