mac-x0344-mac-x0371
     RDKit          3D

 19 20  0  0  0  0  0  0  0  0999 V2000
    1.0820   11.7930   -3.0720 C   0  0  0  0  0  0  0  0  0  0  0  0
   -0.0130   12.1050   -4.1140 C   0  0  2  0  0  0  0  0  0  0  0  0
   -1.1070   11.4710   -3.2700 N   0  0  0  0  0  0  0  0  0  0  0  0
    1.9500   12.5590   -2.6520 O   0  0  0  0  0  0  0  0  0  0  0  0
    0.3010   11.3920   -5.3990 N   0  0  0  0  0  0  0  0  0  0  0  0
    0.1660   13.6110   -4.2300 C   0  0  0  0  0  0  0  0  0  0  0  0
   -0.7210   10.5200   -2.5660 O   0  0  0  0  0  0  0  0  0  0  0  0
   -0.6460   10.5530   -6.0120 C   0  0  0  0  0  0  0  0  0  0  0  0
   -0.8450   14.5900   -4.3370 C   0  0  0  0  0  0  0  0  0  0  0  0
    1.4840   14.0590   -4.2220 C   0  0  0  0  0  0  0  0  0  0  0  0
   -2.5380   14.2260   -4.3550 Cl  0  0  0  0  0  0  0  0  0  0  0  0
   -0.3260    9.9620   -7.2380 C   0  0  0  0  0  0  0  0  0  0  0  0
   -1.8990   10.2750   -5.4510 C   0  0  0  0  0  0  0  0  0  0  0  0
   -0.5130   15.9500   -4.4340 C   0  0  0  0  0  0  0  0  0  0  0  0
    1.7980   15.3800   -4.3060 C   0  0  0  0  0  0  0  0  0  0  0  0
   -1.2240    9.1170   -7.8900 C   0  0  0  0  0  0  0  0  0  0  0  0
   -2.8020    9.4320   -6.0990 C   0  0  0  0  0  0  0  0  0  0  0  0
    0.8190   16.3480   -4.4160 C   0  0  0  0  0  0  0  0  0  0  0  0
   -2.4640    8.8520   -7.3210 C   0  0  0  0  0  0  0  0  0  0  0  0
  2  1  1  1
  2  3  1  0
  1  4  2  0
  2  5  1  0
  2  6  1  0
  3  7  2  0
  5  8  1  0
  6  9  2  0
  6 10  1  0
  9 11  1  0
  8 12  2  0
  8 13  1  0
  9 14  1  0
 10 15  2  0
 12 16  1  0
 13 17  2  0
 14 18  2  0
 15 18  1  0
 16 19  2  0
 17 19  1  0
M  END
