mac-x0231-diamond-x0962_0_A
     RDKit          3D

 22 24  0  0  0  0  0  0  0  0999 V2000
    1.2990   10.8080   -3.5460 O   0  0  0  0  0  0  0  0  0  0  0  0
    1.8350   12.0290   -3.5910 C   0  0  0  0  0  0  0  0  0  0  0  0
    2.0840   12.5740   -2.5300 O   0  0  0  0  0  0  0  0  0  0  0  0
    2.0360   12.5990   -4.9880 C   0  0  0  0  0  0  0  0  0  0  0  0
    1.3190   13.9090   -4.9140 C   0  0  0  0  0  0  0  0  0  0  0  0
   -0.1550   13.8690   -4.9680 C   0  0  0  0  0  0  0  0  0  0  0  0
    2.0260   14.9430   -4.6410 N   0  0  0  0  0  0  0  0  0  0  0  0
   -0.7500   14.7790   -4.1360 C   0  0  0  0  0  0  0  0  0  0  0  0
    1.2720   15.9810   -4.3880 N   0  0  0  0  0  0  0  0  0  0  0  0
   -0.8950   12.9680   -5.7320 C   0  0  0  0  0  0  0  0  0  0  0  0
    0.2520   15.6880   -3.5340 C   0  0  0  0  0  0  0  0  0  0  0  0
   -2.1470   14.6990   -3.9650 C   0  0  0  0  0  0  0  0  0  0  0  0
   -2.2790   12.9540   -5.6280 C   0  0  0  0  0  0  0  0  0  0  0  0
    0.2660   16.1420   -2.4530 O   0  0  0  0  0  0  0  0  0  0  0  0
   -2.9280   15.3990   -3.0170 C   0  0  0  0  0  0  0  0  0  0  0  0
   -2.8940   13.8050   -4.7310 C   0  0  0  0  0  0  0  0  0  0  0  0
   -3.5210   15.5490   -1.9810 C   0  0  0  0  0  0  0  0  0  0  0  0
   -4.1140   15.4160   -0.6960 C   0  0  0  0  0  0  0  0  0  0  0  0
   -3.4440   15.3830    0.4980 N   0  0  0  0  0  0  0  0  0  0  0  0
   -5.4330   15.2740   -0.3670 C   0  0  0  0  0  0  0  0  0  0  0  0
   -4.3700   15.2370    1.4830 C   0  0  0  0  0  0  0  0  0  0  0  0
   -5.5820   15.1580    0.9940 N   0  0  0  0  0  0  0  0  0  0  0  0
  1  2  1  0
  2  3  2  0
  2  4  1  0
  4  5  1  0
  5  6  1  0
  5  7  2  0
  6  8  2  0
  7  9  1  0
  6 10  1  0
  8 11  1  0
  9 11  1  0
  8 12  1  0
 10 13  2  0
 11 14  2  0
 12 15  1  0
 12 16  2  0
 13 16  1  0
 15 17  3  0
 17 18  1  0
 18 19  1  0
 18 20  2  0
 19 21  1  0
 20 22  1  0
 21 22  2  0
M  END
