mac-x0346-diamond-x0910_0_A
     RDKit          3D

 18 19  0  0  0  0  0  0  0  0999 V2000
   -7.6350   14.0820    1.2000 O   0  0  0  0  0  0  0  0  0  0  0  0
   -7.7520   14.8200   -0.0090 N   0  0  0  0  0  0  0  0  0  0  0  0
   -6.6610   14.8420   -0.8480 C   0  0  0  0  0  0  0  0  0  0  0  0
   -6.8010   14.5880   -2.0430 O   0  0  0  0  0  0  0  0  0  0  0  0
   -5.3150   15.1960   -0.3010 C   0  0  0  0  0  0  0  0  0  0  0  0
   -4.1830   15.4900   -1.0790 C   0  0  0  0  0  0  0  0  0  0  0  0
   -5.1760   15.2380    1.1000 C   0  0  0  0  0  0  0  0  0  0  0  0
   -4.2040   15.4540   -2.4230 O   0  0  0  0  0  0  0  0  0  0  0  0
   -2.9880   15.8210   -0.4700 C   0  0  0  0  0  0  0  0  0  0  0  0
   -3.9630   15.5680    1.6900 C   0  0  0  0  0  0  0  0  0  0  0  0
   -2.9160   15.0610   -2.8990 C   0  0  0  0  0  0  0  0  0  0  0  0
   -2.8740   15.8600    0.8940 C   0  0  0  0  0  0  0  0  0  0  0  0
   -2.2930   14.0650   -2.0120 N   0  0  0  0  0  0  0  0  0  0  0  0
   -1.4870   14.3870   -0.9490 C   0  0  0  0  0  0  0  0  0  0  0  0
   -1.8430   14.1220    0.3570 N   0  0  0  0  0  0  0  0  0  0  0  0
   -0.3050   14.9560   -0.9380 N   0  0  0  0  0  0  0  0  0  0  0  0
   -0.8960   14.5210    1.2280 N   0  0  0  0  0  0  0  0  0  0  0  0
    0.0150   15.0210    0.3970 C   0  0  0  0  0  0  0  0  0  0  0  0
  1  2  1  0
  2  3  1  0
  3  4  2  0
  3  5  1  0
  5  6  2  0
  5  7  1  0
  6  8  1  0
  6  9  1  0
  7 10  2  0
  8 11  1  0
  9 12  2  0
 10 12  1  0
 11 13  1  0
 13 14  1  0
 14 15  1  0
 14 16  2  0
 15 17  1  0
 16 18  1  0
 17 18  2  0
M  END
