mac-x0584-diamond-x0849_0_A
     RDKit          3D

 19 22  0  0  0  0  0  0  0  0999 V2000
   -4.8180   15.0060   -2.4750 Br  0  0  0  0  0  0  0  0  0  0  0  0
   -4.0050   15.0420   -0.8520 C   0  0  0  0  0  0  0  0  0  0  0  0
   -2.6170   14.9110   -0.5840 C   0  0  0  0  0  0  0  0  0  0  0  0
   -4.5970   15.2010    0.3350 C   0  0  0  0  0  0  0  0  0  0  0  0
   -2.5860   14.9450    0.9000 C   0  0  0  0  0  0  0  0  0  0  0  0
   -1.4580   14.8010   -1.2490 C   0  0  0  0  0  0  0  0  0  0  0  0
   -3.7520   15.1560    1.4240 N   0  0  0  0  0  0  0  0  0  0  0  0
   -1.2910   14.7890   -2.6170 N   0  0  0  0  0  0  0  0  0  0  0  0
   -0.3290   14.7130   -0.4710 N   0  0  0  0  0  0  0  0  0  0  0  0
   -1.4440   14.7900    1.6090 N   0  0  0  0  0  0  0  0  0  0  0  0
   -0.0200   14.6420   -3.3100 C   0  0  1  0  0  0  0  0  0  0  0  0
   -2.3860   15.0220   -3.5640 C   0  0  0  0  0  0  0  0  0  0  0  0
   -0.3900   14.7000    0.8920 C   0  0  0  0  0  0  0  0  0  0  0  0
    0.2330   13.1770   -3.5570 C   0  0  0  0  0  0  0  0  0  0  0  0
   -0.2470   15.3730   -4.6480 C   0  0  0  0  0  0  0  0  0  0  0  0
   -1.7410   15.2490   -4.9240 C   0  0  0  0  0  0  0  0  0  0  0  0
    1.5170   12.6250   -4.2260 C   0  0  0  0  0  0  0  0  0  0  0  0
   -0.5230   12.5740   -4.7610 C   0  0  0  0  0  0  0  0  0  0  0  0
    0.5730   11.5290   -4.7760 C   0  0  0  0  0  0  0  0  0  0  0  0
  1  2  1  0
  2  3  1  0
  2  4  2  0
  3  5  1  0
  3  6  2  0
  4  7  1  0
  5  7  2  0
  6  8  1  0
  6  9  1  0
  5 10  1  0
  8 11  1  0
  8 12  1  0
  9 13  1  0
 10 13  2  0
 11 14  1  6
 11 15  1  0
 12 16  1  0
 15 16  1  0
 14 17  1  0
 14 18  1  0
 17 19  1  0
 18 19  1  0
M  END
