mac-x0231-mac-x0283
     RDKit          3D

 26 29  0  0  0  0  0  0  0  0999 V2000
    0.6330   10.8450   -3.3550 O   0  0  0  0  0  0  0  0  0  0  0  0
    1.3360   11.9780   -3.1590 C   0  0  0  0  0  0  0  0  0  0  0  0
    1.4700   12.4180   -2.0330 O   0  0  0  0  0  0  0  0  0  0  0  0
    1.8750   12.5810   -4.4250 C   0  0  0  0  0  0  0  0  0  0  0  0
    1.3780   13.9810   -4.4600 C   0  0  0  0  0  0  0  0  0  0  0  0
   -0.0560   14.1610   -4.4330 C   0  0  0  0  0  0  0  0  0  0  0  0
    2.2100   14.9530   -4.4240 N   0  0  0  0  0  0  0  0  0  0  0  0
   -0.5310   15.4590   -4.4460 C   0  0  0  0  0  0  0  0  0  0  0  0
    1.7150   16.2130   -4.3970 N   0  0  0  0  0  0  0  0  0  0  0  0
   -0.9110   13.0720   -4.3660 C   0  0  0  0  0  0  0  0  0  0  0  0
    0.4110   16.5720   -4.5400 C   0  0  0  0  0  0  0  0  0  0  0  0
   -1.8820   15.6840   -4.3510 C   0  0  0  0  0  0  0  0  0  0  0  0
   -2.2600   13.2900   -4.2680 C   0  0  0  0  0  0  0  0  0  0  0  0
    0.0450   17.7250   -4.7310 O   0  0  0  0  0  0  0  0  0  0  0  0
   -2.7270   14.5930   -4.2400 C   0  0  0  0  0  0  0  0  0  0  0  0
   -4.1410   14.8310   -4.0630 C   0  0  0  0  0  0  0  0  0  0  0  0
   -4.5110   14.9000   -2.5610 C   0  0  0  0  0  0  0  0  0  0  0  0
   -5.8530   14.7140   -2.3000 C   0  0  0  0  0  0  0  0  0  0  0  0
   -3.6130   15.1180   -1.4600 C   0  0  0  0  0  0  0  0  0  0  0  0
   -6.2700   14.7310   -0.9940 C   0  0  0  0  0  0  0  0  0  0  0  0
   -4.0830   15.1350   -0.1150 C   0  0  0  0  0  0  0  0  0  0  0  0
   -7.5530   14.5520   -0.6140 O   0  0  0  0  0  0  0  0  0  0  0  0
   -5.4630   14.9250    0.1060 C   0  0  0  0  0  0  0  0  0  0  0  0
   -6.3940   14.8380    1.1850 C   0  0  0  0  0  0  0  0  0  0  0  0
   -7.6390   14.6140    0.7570 N   0  0  0  0  0  0  0  0  0  0  0  0
   -6.0790   14.9780    2.4820 N   0  0  0  0  0  0  0  0  0  0  0  0
  1  2  1  0
  2  3  2  0
  2  4  1  0
  4  5  1  0
  5  6  1  0
  5  7  2  0
  6  8  2  0
  7  9  1  0
  6 10  1  0
  8 11  1  0
  9 11  1  0
  8 12  1  0
 10 13  2  0
 11 14  2  0
 12 15  2  0
 13 15  1  0
 15 16  1  0
 16 17  1  0
 17 18  2  0
 17 19  1  0
 18 20  1  0
 19 21  2  0
 20 22  1  0
 20 23  2  0
 21 23  1  0
 23 24  1  0
 22 25  1  0
 24 25  2  0
 24 26  1  0
M  END
