mac-x0319-diamond-x0685_1_A
     RDKit          3D

 20 21  0  0  0  0  0  0  0  0999 V2000
    0.9160   10.9830   -2.0300 O   0  0  0  0  0  0  0  0  0  0  0  0
    0.4910   11.8080   -3.0940 C   0  0  0  0  0  0  0  0  0  0  0  0
   -0.2770   12.7650   -2.4210 O   0  0  0  0  0  0  0  0  0  0  0  0
    1.5240   12.6910   -3.8060 C   0  0  0  0  0  0  0  0  0  0  0  0
   -0.3330   10.9390   -4.0340 C   0  0  0  0  0  0  0  0  0  0  0  0
   -1.3060   11.6380   -4.9520 C   0  0  0  0  0  0  0  0  0  0  0  0
    0.8170   13.9980   -4.1080 C   0  0  0  0  0  0  0  0  0  0  0  0
   -0.6310   11.9530   -6.1600 N   0  0  0  0  0  0  0  0  0  0  0  0
    1.4380   15.2460   -4.0210 C   0  0  0  0  0  0  0  0  0  0  0  0
   -0.5400   13.9570   -4.4820 C   0  0  0  0  0  0  0  0  0  0  0  0
    0.6990   16.4000   -4.3000 C   0  0  0  0  0  0  0  0  0  0  0  0
   -1.2610   15.1120   -4.7590 C   0  0  0  0  0  0  0  0  0  0  0  0
   -0.4940   10.8600   -7.1010 C   0  0  0  0  0  0  0  0  0  0  0  0
    1.3120   17.6080   -4.2000 O   0  0  0  0  0  0  0  0  0  0  0  0
   -0.6370   16.3430   -4.6690 C   0  0  0  0  0  0  0  0  0  0  0  0
   -0.6530    9.4520   -6.5170 C   0  0  0  0  0  0  0  0  0  0  0  0
   -1.5440   10.9840   -8.1910 C   0  0  0  0  0  0  0  0  0  0  0  0
   -0.2160    8.4450   -7.5840 C   0  0  0  0  0  0  0  0  0  0  0  0
   -1.2460   10.0440   -9.3480 C   0  0  0  0  0  0  0  0  0  0  0  0
   -0.9900    8.5960   -8.9100 C   0  0  0  0  0  0  0  0  0  0  0  0
  2  1  1  0
  2  3  1  0
  2  4  1  0
  2  5  1  0
  5  6  1  0
  4  7  1  0
  6  8  1  0
  7  9  2  0
  7 10  1  0
  9 11  1  0
 10 12  2  0
  8 13  1  0
 11 14  1  0
 11 15  2  0
 12 15  1  0
 13 16  1  0
 13 17  1  0
 16 18  1  0
 17 19  1  0
 18 20  1  0
 19 20  1  0
M  END
