mac-x0567-mac-x0358
     RDKit          3D

 23 25  0  0  0  0  0  0  0  0999 V2000
   -0.4310   14.5540   -1.3620 N   0  0  0  0  0  0  0  0  0  0  0  0
   -1.4980   14.7940   -0.5950 C   0  0  0  0  0  0  0  0  0  0  0  0
   -1.3820   14.8820    0.7090 N   0  0  0  0  0  0  0  0  0  0  0  0
   -2.7660   14.9930   -0.8460 C   0  0  0  0  0  0  0  0  0  0  0  0
   -0.0730   14.6830    1.1100 C   0  0  0  0  0  0  0  0  0  0  0  0
   -2.5020   15.1290    1.4250 N   0  0  0  0  0  0  0  0  0  0  0  0
   -3.4120   15.2100    0.4200 C   0  0  0  0  0  0  0  0  0  0  0  0
   -3.2780   14.9820   -2.1180 C   0  0  0  0  0  0  0  0  0  0  0  0
    0.2380   13.5260    0.1710 C   0  0  0  0  0  0  0  0  0  0  0  0
   -4.7780   15.4560    0.4230 C   0  0  0  0  0  0  0  0  0  0  0  0
   -4.6410   15.2330   -2.0820 C   0  0  0  0  0  0  0  0  0  0  0  0
    0.8650   13.7180   -1.1760 O   0  0  0  0  0  0  0  0  0  0  0  0
   -5.3590   15.4600   -0.8710 C   0  0  0  0  0  0  0  0  0  0  0  0
    0.6350   12.7010   -2.1280 C   0  0  0  0  0  0  0  0  0  0  0  0
    0.3120   11.5640   -1.7960 O   0  0  0  0  0  0  0  0  0  0  0  0
    0.8300   13.1510   -3.5910 C   0  0  0  0  0  0  0  0  0  0  0  0
   -0.4450   13.5620   -4.3250 C   0  0  0  0  0  0  0  0  0  0  0  0
   -1.3220   12.6190   -4.8950 C   0  0  0  0  0  0  0  0  0  0  0  0
   -0.7790   14.9240   -4.4510 C   0  0  0  0  0  0  0  0  0  0  0  0
   -1.0220   11.2890   -4.7920 O   0  0  0  0  0  0  0  0  0  0  0  0
   -2.4900   13.0150   -5.5590 C   0  0  0  0  0  0  0  0  0  0  0  0
   -1.9470   15.3230   -5.1150 C   0  0  0  0  0  0  0  0  0  0  0  0
   -2.7990   14.3690   -5.6670 C   0  0  0  0  0  0  0  0  0  0  0  0
  1  2  1  0
  2  3  1  0
  2  4  2  0
  3  5  1  0
  3  6  1  0
  4  7  1  0
  6  7  2  0
  4  8  1  0
  5  9  1  0
  7 10  1  0
  8 11  2  0
  9 12  1  0
 10 13  2  0
 11 13  1  0
 12 14  1  0
 14 15  2  0
 14 16  1  0
 16 17  1  0
 17 18  2  0
 17 19  1  0
 18 20  1  0
 18 21  1  0
 19 22  2  0
 21 23  2  0
 22 23  1  0
M  END
