mac-x0437-mac-x0137
     RDKit          3D

 30 34  0  0  0  0  0  0  0  0999 V2000
    2.8650   12.7090   -3.2620 O   0  0  0  0  0  0  0  0  0  0  0  0
    2.1150   11.8360   -3.9620 C   0  0  0  0  0  0  0  0  0  0  0  0
    1.7470   10.7860   -3.4880 O   0  0  0  0  0  0  0  0  0  0  0  0
    1.7000   12.2700   -5.3450 C   0  0  0  0  0  0  0  0  0  0  0  0
    0.1960   12.3070   -5.1650 C   0  0  2  0  0  0  0  0  0  0  0  0
   -0.7050   11.4460   -5.8280 N   0  0  0  0  0  0  0  0  0  0  0  0
   -0.3080   13.4860   -4.4630 C   0  0  1  0  0  0  0  0  0  0  0  0
   -1.9500   11.1590   -5.3620 C   0  0  0  0  0  0  0  0  0  0  0  0
   -0.4800   10.7690   -6.9630 C   0  0  0  0  0  0  0  0  0  0  0  0
   -1.7820   13.8070   -4.3140 C   0  0  1  0  0  0  0  0  0  0  0  0
    0.3040   13.2310   -3.1050 C   0  0  0  0  0  0  0  0  0  0  0  0
   -2.4660   12.7950   -3.7150 F   0  0  0  0  0  0  0  0  0  0  0  0
   -2.5590   10.3080   -6.1270 N   0  0  0  0  0  0  0  0  0  0  0  0
   -1.6570   10.0430   -7.1180 C   0  0  0  0  0  0  0  0  0  0  0  0
    0.6010   10.6960   -7.8390 C   0  0  0  0  0  0  0  0  0  0  0  0
   -1.8400   15.0290   -3.4060 C   0  0  0  0  0  0  0  0  0  0  0  0
    0.4760   14.5730   -2.5440 C   0  0  0  0  0  0  0  0  0  0  0  0
   -1.7670    9.1760   -8.1980 C   0  0  0  0  0  0  0  0  0  0  0  0
    0.4690    9.8220   -8.9140 C   0  0  0  0  0  0  0  0  0  0  0  0
   -0.9010   14.9030   -2.2520 N   0  0  0  0  0  0  0  0  0  0  0  0
   -0.6950    9.0710   -9.0880 C   0  0  0  0  0  0  0  0  0  0  0  0
   -1.2730   14.7940   -0.9460 C   0  0  0  0  0  0  0  0  0  0  0  0
   -0.3010   14.4700   -0.0300 N   0  0  0  0  0  0  0  0  0  0  0  0
   -2.4920   15.0040   -0.4740 C   0  0  0  0  0  0  0  0  0  0  0  0
   -0.5660   14.3830    1.2970 C   0  0  0  0  0  0  0  0  0  0  0  0
   -2.7120   14.9130    0.9760 C   0  0  0  0  0  0  0  0  0  0  0  0
   -3.7710   15.3550   -0.9930 C   0  0  0  0  0  0  0  0  0  0  0  0
   -1.7120   14.5860    1.8420 N   0  0  0  0  0  0  0  0  0  0  0  0
   -3.9360   15.2060    1.2920 N   0  0  0  0  0  0  0  0  0  0  0  0
   -4.5550   15.4620    0.0800 C   0  0  0  0  0  0  0  0  0  0  0  0
  1  2  1  0
  2  3  2  0
  2  4  1  0
  5  4  1  6
  5  6  1  0
  5  7  1  0
  6  8  1  0
  6  9  1  0
  7 10  1  0
  7 11  1  1
 10 12  1  1
  8 13  2  0
  9 14  2  0
 13 14  1  0
  9 15  1  0
 10 16  1  0
 11 17  1  0
 14 18  1  0
 15 19  2  0
 16 20  1  0
 17 20  1  0
 18 21  2  0
 19 21  1  0
 20 22  1  0
 22 23  1  0
 22 24  2  0
 23 25  1  0
 24 26  1  0
 24 27  1  0
 25 28  2  0
 26 28  1  0
 26 29  2  0
 27 30  2  0
 29 30  1  0
M  END
