mac-x0142-mac-x0510
     RDKit          3D

 19 22  0  0  0  0  0  0  0  0999 V2000
   -5.7320   15.0570    0.0350 O   0  0  0  0  0  0  0  0  0  0  0  0
   -4.5110   15.0890    0.0090 C   0  0  0  0  0  0  0  0  0  0  0  0
   -3.6940   15.0760    1.1210 N   0  0  0  0  0  0  0  0  0  0  0  0
   -3.6880   15.1130   -1.3120 C   0  0  0  0  0  0  0  0  0  0  0  0
   -4.0750   15.2640   -2.4400 O   0  0  0  0  0  0  0  0  0  0  0  0
   -2.4920   14.9680    0.6720 C   0  0  0  0  0  0  0  0  0  0  0  0
   -2.3360   14.9090   -0.8050 C   0  0  0  0  0  0  0  0  0  0  0  0
   -1.4210   14.9260    1.4940 N   0  0  0  0  0  0  0  0  0  0  0  0
   -1.1210   14.7170   -1.3560 C   0  0  0  0  0  0  0  0  0  0  0  0
   -0.8450   14.6490   -2.7300 N   0  0  0  0  0  0  0  0  0  0  0  0
   -0.0900   14.5940   -0.4420 N   0  0  0  0  0  0  0  0  0  0  0  0
   -0.2940   14.7530    0.9060 C   0  0  0  0  0  0  0  0  0  0  0  0
   -1.8750   14.4070   -3.7600 C   0  0  0  0  0  0  0  0  0  0  0  0
    0.5150   14.8650   -3.2750 C   0  0  0  0  0  0  0  0  0  0  0  0
    0.9100   13.6580   -4.0920 C   0  0  0  0  0  0  0  0  0  0  0  0
   -1.4670   13.2650   -4.7030 C   0  0  0  0  0  0  0  0  0  0  0  0
    2.3670   13.2770   -4.2450 C   0  0  0  0  0  0  0  0  0  0  0  0
    1.4780   12.4710   -3.3450 C   0  0  0  0  0  0  0  0  0  0  0  0
   -0.0350   13.3770   -5.2280 C   0  0  0  0  0  0  0  0  0  0  0  0
  1  2  2  0
  2  3  1  0
  2  4  1  0
  4  5  2  0
  3  6  2  0
  4  7  1  0
  6  7  1  0
  6  8  1  0
  7  9  2  0
  9 10  1  0
  9 11  1  0
  8 12  2  0
 11 12  1  0
 10 13  1  0
 10 14  1  0
 15 14  1  0
 13 16  1  0
 15 17  1  0
 15 18  1  0
 17 18  1  0
 15 19  1  0
 16 19  1  0
M  END
