mac-x0360-mac-x0385
     RDKit          3D

 18 19  0  0  0  0  0  0  0  0999 V2000
   -7.5460   11.8240    1.7680 Cl  0  0  0  0  0  0  0  0  0  0  0  0
   -6.5450   11.9090    0.3680 C   0  0  0  0  0  0  0  0  0  0  0  0
   -6.4060   10.7730   -0.4220 C   0  0  0  0  0  0  0  0  0  0  0  0
   -5.8860   13.0880    0.0230 C   0  0  0  0  0  0  0  0  0  0  0  0
   -5.0830   13.1100   -1.1330 C   0  0  0  0  0  0  0  0  0  0  0  0
   -5.5990   10.8120   -1.5500 C   0  0  0  0  0  0  0  0  0  0  0  0
   -5.3990    9.4160   -2.5380 Cl  0  0  0  0  0  0  0  0  0  0  0  0
   -4.1600   14.5030   -1.7920 S   0  0  0  0  0  0  0  0  0  0  0  0
   -4.9450   11.9680   -1.9010 C   0  0  0  0  0  0  0  0  0  0  0  0
   -5.1190   14.8490   -3.0690 N   0  0  0  0  0  0  0  0  0  0  0  0
   -4.6760   15.6430   -0.6640 N   0  0  0  0  0  0  0  0  0  0  0  0
   -3.5540   15.4950   -0.0440 C   0  0  0  0  0  0  0  0  0  0  0  0
   -3.2200   15.2300    1.2550 C   0  0  0  0  0  0  0  0  0  0  0  0
   -2.4940   15.5950   -0.9190 C   0  0  0  0  0  0  0  0  0  0  0  0
   -1.9460   15.0620    1.6460 N   0  0  0  0  0  0  0  0  0  0  0  0
   -1.2290   15.4440   -0.6150 N   0  0  0  0  0  0  0  0  0  0  0  0
   -1.0450   15.1780    0.6630 C   0  0  0  0  0  0  0  0  0  0  0  0
    0.3240   14.9780    1.0170 C   0  0  0  0  0  0  0  0  0  0  0  0
  1  2  1  0
  2  3  2  0
  2  4  1  0
  4  5  2  0
  3  6  1  0
  6  7  1  0
  5  8  1  0
  5  9  1  0
  6  9  2  0
  8 10  1  0
  8 11  2  3
 11 12  1  0
 12 13  2  0
 12 14  1  0
 13 15  1  0
 14 16  2  0
 15 17  2  0
 16 17  1  0
 17 18  1  0
M  END
