mac-x0346-diamond-x0933_0_A
     RDKit          3D

 11 11  0  0  0  0  0  0  0  0999 V2000
   -7.5320   14.0450    1.1840 O   0  0  0  0  0  0  0  0  0  0  0  0
   -7.6600   14.9830    0.1330 N   0  0  0  0  0  0  0  0  0  0  0  0
   -6.6490   15.0030   -0.8080 C   0  0  0  0  0  0  0  0  0  0  0  0
   -6.8910   14.9720   -2.0080 O   0  0  0  0  0  0  0  0  0  0  0  0
   -5.2540   15.0570   -0.2970 C   0  0  0  0  0  0  0  0  0  0  0  0
   -4.1890   15.0150   -1.1990 C   0  0  0  0  0  0  0  0  0  0  0  0
   -4.9900   15.1480    1.0780 C   0  0  0  0  0  0  0  0  0  0  0  0
   -4.4220   14.9340   -2.5420 O   0  0  0  0  0  0  0  0  0  0  0  0
   -2.8790   15.0520   -0.7390 C   0  0  0  0  0  0  0  0  0  0  0  0
   -3.6730   15.1920    1.5310 C   0  0  0  0  0  0  0  0  0  0  0  0
   -2.6180   15.1420    0.6320 C   0  0  0  0  0  0  0  0  0  0  0  0
  1  2  1  0
  2  3  1  0
  3  4  2  0
  3  5  1  0
  5  6  2  0
  5  7  1  0
  6  8  1  0
  6  9  1  0
  7 10  2  0
  9 11  2  0
 10 11  1  0
M  END
