mac-x0587-diamond-x0290_0_A
     RDKit          3D

 21 21  0  0  0  0  0  0  0  0999 V2000
    0.0190   16.1450   -4.2500 C   0  0  0  0  0  0  0  0  0  0  0  0
   -0.5630   14.8280   -3.7250 C   0  0  2  0  0  0  0  0  0  0  0  0
   -0.2540   13.5340   -5.0050 S   0  0  0  0  0  0  0  0  0  0  0  0
   -2.0630   15.0000   -3.3810 C   0  0  0  0  0  0  0  0  0  0  0  0
   -0.6530   12.0120   -4.0850 C   0  0  0  0  0  0  0  0  0  0  0  0
   -2.8900   15.2670   -4.2590 O   0  0  0  0  0  0  0  0  0  0  0  0
   -2.4350   14.8430   -2.0420 N   0  0  0  0  0  0  0  0  0  0  0  0
    0.4340   11.5570   -3.1460 C   0  0  0  0  0  0  0  0  0  0  0  0
   -3.7560   14.9850   -1.4470 C   0  0  0  0  0  0  0  0  0  0  0  0
   -1.5130   14.7950   -0.9770 C   0  0  0  0  0  0  0  0  0  0  0  0
    0.5650   10.4210   -2.7320 O   0  0  0  0  0  0  0  0  0  0  0  0
    1.2820   12.5420   -2.7840 O   0  0  0  0  0  0  0  0  0  0  0  0
   -0.2980   14.8120   -0.9950 O   0  0  0  0  0  0  0  0  0  0  0  0
   -3.5370   14.3220   -0.0740 C   0  0  1  0  0  0  0  0  0  0  0  0
   -2.2210   14.7350    0.2240 N   0  0  0  0  0  0  0  0  0  0  0  0
   -4.4410   14.6530    0.9790 N   0  0  0  0  0  0  0  0  0  0  0  0
   -5.7470   14.4960    0.6410 C   0  0  0  0  0  0  0  0  0  0  0  0
   -6.1150   14.6450   -0.5160 O   0  0  0  0  0  0  0  0  0  0  0  0
   -6.6770   14.1010    1.7830 C   0  0  0  0  0  0  0  0  0  0  0  0
   -8.0340   13.8400    1.2940 N   0  0  0  0  0  0  0  0  0  0  0  0
   -8.6580   14.9820    0.6460 C   0  0  0  0  0  0  0  0  0  0  0  0
  2  1  1  6
  2  3  1  0
  2  4  1  0
  3  5  1  0
  4  6  2  0
  4  7  1  0
  5  8  1  0
  7  9  1  0
  7 10  1  0
  8 11  2  0
  8 12  1  0
 10 13  2  0
  9 14  1  0
 10 15  1  0
 14 15  1  0
 14 16  1  1
 16 17  1  0
 17 18  2  0
 17 19  1  0
 19 20  1  0
 20 21  1  0
M  END
