mac-x0123-mac-x0572
     RDKit          3D

 15 17  0  0  0  0  0  0  0  0999 V2000
   -3.4020   14.7260    1.7380 N   0  0  0  0  0  0  0  0  0  0  0  0
   -4.4670   14.7020    0.8480 C   0  0  0  0  0  0  0  0  0  0  0  0
   -5.7620   14.6080    1.1770 C   0  0  0  0  0  0  0  0  0  0  0  0
   -4.1680   14.7730   -0.5390 N   0  0  0  0  0  0  0  0  0  0  0  0
   -5.1640   14.7480   -1.5280 C   0  0  0  0  0  0  0  0  0  0  0  0
   -6.7160   14.5960    0.0470 C   0  0  0  0  0  0  0  0  0  0  0  0
   -6.4990   14.5060    2.4650 C   0  0  0  0  0  0  0  0  0  0  0  0
   -2.9490   14.8670   -1.1260 N   0  0  0  0  0  0  0  0  0  0  0  0
   -6.4840   14.6560   -1.2140 N   0  0  0  0  0  0  0  0  0  0  0  0
   -8.0760   14.5000    0.6270 C   0  0  0  0  0  0  0  0  0  0  0  0
   -7.9930   14.6890    2.1390 C   0  0  1  0  0  0  0  0  0  0  0  0
   -4.5940   14.8250   -2.7080 N   0  0  0  0  0  0  0  0  0  0  0  0
   -3.2710   14.8940   -2.4200 C   0  0  0  0  0  0  0  0  0  0  0  0
   -8.8430   13.7540    2.9600 C   0  0  0  0  0  0  0  0  0  0  0  0
   -9.0310   14.3120   -0.0860 O   0  0  0  0  0  0  0  0  0  0  0  0
  1  2  1  0
  2  3  2  0
  2  4  1  0
  4  5  1  0
  3  6  1  0
  3  7  1  0
  4  8  1  0
  5  9  1  0
  6  9  2  0
  6 10  1  0
  7 11  1  0
 10 11  1  0
  5 12  2  0
  8 13  2  0
 12 13  1  0
 11 14  1  1
 10 15  2  0
M  END
