mac-x0333-mac-x0283
     RDKit          3D

 11 12  0  0  0  0  0  0  0  0999 V2000
   -2.5710   15.3330   -2.7120 O   0  0  0  0  0  0  0  0  0  0  0  0
   -3.4590   15.1460   -1.6890 C   0  0  0  0  0  0  0  0  0  0  0  0
   -3.0320   14.9770   -0.3610 C   0  0  0  0  0  0  0  0  0  0  0  0
   -4.8070   15.1260   -2.0200 C   0  0  0  0  0  0  0  0  0  0  0  0
   -5.7040   14.9260   -0.9980 C   0  0  0  0  0  0  0  0  0  0  0  0
   -3.9680   14.7770    0.6630 C   0  0  0  0  0  0  0  0  0  0  0  0
   -5.3170   14.7480    0.3210 C   0  0  0  0  0  0  0  0  0  0  0  0
   -7.0660   14.8740   -1.1610 O   0  0  0  0  0  0  0  0  0  0  0  0
   -6.4520   14.5420    1.1420 N   0  0  0  0  0  0  0  0  0  0  0  0
   -7.5620   14.6040    0.1720 C   0  0  0  0  0  0  0  0  0  0  0  0
   -6.5500   14.9840    2.4740 N   0  0  0  0  0  0  0  0  0  0  0  0
  1  2  1  0
  2  3  2  0
  2  4  1  0
  4  5  2  0
  3  6  1  0
  5  7  1  0
  6  7  2  0
  5  8  1  0
  7  9  1  0
  8 10  1  0
  9 10  1  0
  9 11  1  0
M  END
