mac-x0333-diamond-x0574_0_A
     RDKit          3D

 17 19  0  0  0  0  0  0  0  0999 V2000
   -2.5040   15.2020   -2.8900 O   0  0  0  0  0  0  0  0  0  0  0  0
   -3.4280   14.5930   -1.9820 C   0  0  1  0  0  0  0  0  0  0  0  0
   -2.9740   14.6820   -0.5060 C   0  0  2  0  0  0  0  0  0  0  0  0
   -4.8090   15.2160   -2.1180 C   0  0  0  0  0  0  0  0  0  0  0  0
   -5.8390   14.4380   -1.3230 C   0  0  1  0  0  0  0  0  0  0  0  0
   -4.1410   14.7760    0.5670 C   0  0  1  0  0  0  0  0  0  0  0  0
   -1.1110   14.9540   -0.3560 S   0  0  0  0  0  0  0  0  0  0  0  0
   -2.5970   13.4130    0.1630 C   0  0  0  0  0  0  0  0  0  0  0  0
   -4.6610   15.9290    1.1610 O   0  0  0  0  0  0  0  0  0  0  0  0
   -5.3860   14.0280    0.0690 C   0  0  1  0  0  0  0  0  0  0  0  0
   -7.0430   15.1720   -1.1330 O   0  0  0  0  0  0  0  0  0  0  0  0
   -2.2620   13.8980    1.5370 N   0  0  0  0  0  0  0  0  0  0  0  0
   -1.0150   14.4970    1.3290 C   0  0  1  0  0  0  0  0  0  0  0  0
   -5.3370   15.3910    2.3060 C   0  0  0  0  0  0  0  0  0  0  0  0
   -0.0170   13.5050    1.5440 N   0  0  0  0  0  0  0  0  0  0  0  0
   -6.5240   14.2680    0.9140 O   0  0  0  0  0  0  0  0  0  0  0  0
   -7.5880   14.6360    0.0590 C   0  0  0  0  0  0  0  0  0  0  0  0
  2  1  1  6
  2  3  1  0
  2  4  1  0
  5  4  1  1
  3  6  1  0
  3  7  1  0
  3  8  1  1
  6  9  1  6
  5 10  1  0
  6 10  1  0
  5 11  1  0
  8 12  1  0
  7 13  1  0
 12 13  1  0
  9 14  1  0
 13 15  1  6
 10 16  1  1
 11 17  1  0
 16 17  1  0
M  END
