mac-x0224-diamond-x0844_0_A
     RDKit          3D

 19 20  0  0  0  0  0  0  0  0999 V2000
   -4.0660   15.6000    1.8400 C   0  0  0  0  0  0  0  0  0  0  0  0
   -2.3260   15.0770    1.7470 S   0  0  0  0  0  0  0  0  0  0  0  0
   -2.1970   14.8280    0.0340 C   0  0  0  0  0  0  0  0  0  0  0  0
   -1.0090   14.7580   -0.6580 C   0  0  0  0  0  0  0  0  0  0  0  0
   -3.3390   14.6980   -0.5970 C   0  0  0  0  0  0  0  0  0  0  0  0
   -1.0380   14.5570   -2.0420 C   0  0  0  0  0  0  0  0  0  0  0  0
   -3.4510   14.4940   -1.9140 C   0  0  0  0  0  0  0  0  0  0  0  0
    0.2580   14.4710   -2.7320 C   0  0  0  0  0  0  0  0  0  0  0  0
   -2.2850   14.4280   -2.7280 C   0  0  0  0  0  0  0  0  0  0  0  0
   -4.9120   14.3540   -2.0830 C   0  0  1  0  0  0  0  0  0  0  0  0
   -2.3750   14.2260   -4.0860 O   0  0  0  0  0  0  0  0  0  0  0  0
    1.3130   14.3580   -2.1390 O   0  0  0  0  0  0  0  0  0  0  0  0
    0.1920   14.5050   -4.0640 O   0  0  0  0  0  0  0  0  0  0  0  0
   -4.9440   13.3020   -0.9650 C   0  0  0  0  0  0  0  0  0  0  0  0
   -5.8140   15.5410   -1.7000 C   0  0  0  0  0  0  0  0  0  0  0  0
   -5.4820   13.4890    0.2570 C   0  0  0  0  0  0  0  0  0  0  0  0
   -6.7060   15.2490   -0.5140 C   0  0  0  0  0  0  0  0  0  0  0  0
   -7.9070   15.4900   -0.4670 O   0  0  0  0  0  0  0  0  0  0  0  0
   -6.0780   14.6530    0.5210 N   0  0  0  0  0  0  0  0  0  0  0  0
  1  2  1  0
  2  3  1  0
  3  4  2  0
  3  5  1  0
  4  6  1  0
  5  7  2  0
  6  8  1  0
  6  9  2  0
  7  9  1  0
 10  7  1  1
  9 11  1  0
  8 12  2  0
  8 13  1  0
 10 14  1  0
 10 15  1  0
 14 16  2  0
 15 17  1  0
 17 18  2  0
 16 19  1  0
 17 19  1  0
M  END
