mac-x0345-diamond-x0910_0_A
     RDKit          3D

 15 16  0  0  0  0  0  0  0  0999 V2000
   -8.1960   14.9540   -0.1950 C   0  0  0  0  0  0  0  0  0  0  0  0
   -6.7500   14.9110   -0.5720 C   0  0  0  0  0  0  0  0  0  0  0  0
   -6.4470   14.9730   -1.8850 N   0  0  0  0  0  0  0  0  0  0  0  0
   -5.7840   14.8090    0.3870 C   0  0  0  0  0  0  0  0  0  0  0  0
   -6.2670   14.7140    2.1830 Br  0  0  0  0  0  0  0  0  0  0  0  0
   -4.4550   14.7680    0.0480 C   0  0  0  0  0  0  0  0  0  0  0  0
   -5.1430   14.9240   -2.2190 C   0  0  0  0  0  0  0  0  0  0  0  0
   -4.8720   14.9750   -3.5850 N   0  0  0  0  0  0  0  0  0  0  0  0
   -4.0950   14.8200   -1.2790 C   0  0  0  0  0  0  0  0  0  0  0  0
   -2.7480   14.7590   -1.6550 N   0  0  0  0  0  0  0  0  0  0  0  0
   -1.7430   14.7990   -0.7700 C   0  0  0  0  0  0  0  0  0  0  0  0
   -1.9420   14.7320    0.5830 N   0  0  0  0  0  0  0  0  0  0  0  0
   -0.4660   14.9160   -1.0020 N   0  0  0  0  0  0  0  0  0  0  0  0
   -0.7920   14.8130    1.2590 N   0  0  0  0  0  0  0  0  0  0  0  0
    0.0680   14.9290    0.2470 C   0  0  0  0  0  0  0  0  0  0  0  0
  1  2  1  0
  2  3  2  0
  2  4  1  0
  4  5  1  0
  4  6  2  0
  3  7  1  0
  7  8  1  0
  6  9  1  0
  7  9  2  0
  9 10  1  0
 10 11  1  0
 11 12  1  0
 11 13  2  0
 12 14  1  0
 13 15  1  0
 14 15  2  0
M  END
