mac-x0188-diamond-x0905_0_A
     RDKit          3D

 16 17  0  0  0  0  0  0  0  0999 V2000
    1.2630   13.2150   -5.1110 C   0  0  0  0  0  0  0  0  0  0  0  0
   -0.0250   13.5790   -4.4780 C   0  0  0  0  0  0  0  0  0  0  0  0
   -1.1210   13.5190   -5.2760 O   0  0  0  0  0  0  0  0  0  0  0  0
   -0.3940   13.9860   -3.2080 C   0  0  0  0  0  0  0  0  0  0  0  0
    0.5060   14.1760   -2.0840 C   0  0  0  0  0  0  0  0  0  0  0  0
   -2.2430   13.8780   -4.5520 N   0  0  0  0  0  0  0  0  0  0  0  0
   -1.8250   14.1640   -3.3030 C   0  0  0  0  0  0  0  0  0  0  0  0
    1.1410   15.1890   -1.8760 O   0  0  0  0  0  0  0  0  0  0  0  0
    0.6650   13.1320   -1.2290 O   0  0  0  0  0  0  0  0  0  0  0  0
   -2.7920   14.5830   -2.2760 C   0  0  0  0  0  0  0  0  0  0  0  0
   -4.1480   14.8740   -2.5580 C   0  0  0  0  0  0  0  0  0  0  0  0
   -2.3500   14.6940   -0.9470 C   0  0  0  0  0  0  0  0  0  0  0  0
   -5.0110   15.2590   -1.5140 C   0  0  0  0  0  0  0  0  0  0  0  0
   -3.2220   15.0840    0.0730 C   0  0  0  0  0  0  0  0  0  0  0  0
   -6.3310   15.5230   -1.7760 O   0  0  0  0  0  0  0  0  0  0  0  0
   -4.5490   15.3670   -0.2120 C   0  0  0  0  0  0  0  0  0  0  0  0
  1  2  1  0
  2  3  1  0
  2  4  2  0
  4  5  1  0
  3  6  1  0
  4  7  1  0
  6  7  2  0
  5  8  2  0
  5  9  1  0
  7 10  1  0
 10 11  2  0
 10 12  1  0
 11 13  1  0
 12 14  2  0
 13 15  1  0
 13 16  2  0
 14 16  1  0
M  END
