mac-x0178-diamond-x0895_1_A
     RDKit          3D

 23 24  0  0  0  0  0  0  0  0999 V2000
   -0.3060   18.1250   -6.4270 N   0  0  0  0  0  0  0  0  0  0  0  0
   -1.6810   17.5260   -5.6740 S   0  0  0  0  0  0  0  0  0  0  0  0
   -2.6220   17.1380   -6.7020 O   0  0  0  0  0  0  0  0  0  0  0  0
   -1.9910   18.5090   -4.6700 O   0  0  0  0  0  0  0  0  0  0  0  0
   -1.0480   16.0720   -4.8600 C   0  0  0  0  0  0  0  0  0  0  0  0
    0.1960   16.1210   -4.2140 C   0  0  0  0  0  0  0  0  0  0  0  0
   -1.8050   14.8960   -4.8700 C   0  0  0  0  0  0  0  0  0  0  0  0
    0.6770   14.9800   -3.5660 C   0  0  0  0  0  0  0  0  0  0  0  0
   -1.3220   13.7580   -4.2230 C   0  0  0  0  0  0  0  0  0  0  0  0
   -0.0850   13.8030   -3.5680 C   0  0  0  0  0  0  0  0  0  0  0  0
    0.3970   12.5940   -2.8780 C   0  0  0  0  0  0  0  0  0  0  0  0
    0.7560   12.6050   -1.6500 N   0  0  0  0  0  0  0  0  0  0  0  0
    0.4160   11.4960   -3.6440 O   0  0  0  0  0  0  0  0  0  0  0  0
    0.6480   13.9090   -1.0100 C   0  0  0  0  0  0  0  0  0  0  0  0
   -0.1350   13.6980    0.2590 C   0  0  0  0  0  0  0  0  0  0  0  0
   -0.4650   14.9290    1.0080 C   0  0  0  0  0  0  0  0  0  0  0  0
   -1.7650   14.8050    1.6460 N   0  0  0  0  0  0  0  0  0  0  0  0
   -2.8440   14.7300    0.9470 C   0  0  0  0  0  0  0  0  0  0  0  0
   -2.9500   14.7030   -0.5700 C   0  0  0  0  0  0  0  0  0  0  0  0
   -4.0950   14.6500    1.4370 N   0  0  0  0  0  0  0  0  0  0  0  0
   -4.3260   15.1050   -0.7000 N   0  0  0  0  0  0  0  0  0  0  0  0
   -5.0050   14.8510    0.4660 C   0  0  0  0  0  0  0  0  0  0  0  0
   -6.2150   14.8120    0.5910 O   0  0  0  0  0  0  0  0  0  0  0  0
  2  1  1  0
  2  3  2  0
  2  4  2  0
  2  5  1  0
  5  6  2  0
  5  7  1  0
  6  8  1  0
  7  9  2  0
  8 10  2  0
  9 10  1  0
 10 11  1  0
 11 12  2  3
 11 13  1  0
 12 14  1  0
 14 15  1  0
 15 16  1  0
 16 17  1  0
 17 18  2  3
 18 19  1  0
 18 20  1  0
 19 21  1  0
 20 22  1  0
 21 22  1  0
 22 23  2  0
M  END
