mac-x0555-diamond-x0849_0_A
     RDKit          3D

 21 24  0  0  0  0  0  0  0  0999 V2000
   -9.6220   14.3800    1.7990 N   0  0  0  0  0  0  0  0  0  0  0  0
   -8.6420   14.5570    0.8320 C   0  0  0  0  0  0  0  0  0  0  0  0
   -8.8190   14.7470   -0.5490 C   0  0  0  0  0  0  0  0  0  0  0  0
   -7.3950   14.5470    1.2430 C   0  0  0  0  0  0  0  0  0  0  0  0
   -6.4090   14.7110    0.3540 C   0  0  0  0  0  0  0  0  0  0  0  0
   -7.8240   14.9200   -1.4940 N   0  0  0  0  0  0  0  0  0  0  0  0
   -6.5690   14.9040   -1.0480 C   0  0  0  0  0  0  0  0  0  0  0  0
   -5.2860   14.6680    0.9640 C   0  0  0  0  0  0  0  0  0  0  0  0
   -5.3830   15.0610   -1.8530 C   0  0  0  0  0  0  0  0  0  0  0  0
   -4.2680   14.7950    0.2630 C   0  0  0  0  0  0  0  0  0  0  0  0
   -4.2530   14.9770   -1.0460 C   0  0  0  0  0  0  0  0  0  0  0  0
   -2.9880   14.9480   -0.6130 C   0  0  0  0  0  0  0  0  0  0  0  0
   -1.6410   14.8740   -0.7600 C   0  0  0  0  0  0  0  0  0  0  0  0
   -3.5410   15.0310    0.6640 C   0  0  0  0  0  0  0  0  0  0  0  0
   -0.9720   14.8820    0.5060 C   0  0  0  0  0  0  0  0  0  0  0  0
   -2.8340   15.0280    1.7640 C   0  0  0  0  0  0  0  0  0  0  0  0
   -0.9080   14.7880   -1.9280 C   0  0  0  0  0  0  0  0  0  0  0  0
   -1.5480   14.9480    1.7070 N   0  0  0  0  0  0  0  0  0  0  0  0
    0.3070   14.8190    0.5630 N   0  0  0  0  0  0  0  0  0  0  0  0
    0.4500   14.7230   -1.8250 C   0  0  0  0  0  0  0  0  0  0  0  0
    0.9930   14.7440   -0.5830 C   0  0  0  0  0  0  0  0  0  0  0  0
  1  2  1  0
  2  3  2  0
  2  4  1  0
  4  5  2  0
  3  6  1  0
  5  7  1  0
  6  7  2  0
  5  8  1  0
  7  9  1  0
  8 10  2  0
  9 11  2  0
 10 11  1  0
 11 12  1  0
 12 13  1  0
 12 14  2  0
 13 15  2  0
 14 16  1  0
 13 17  1  0
 15 18  1  0
 16 18  2  0
 15 19  1  0
 17 20  2  0
 19 21  2  0
 20 21  1  0
M  END
