mac-x0123-mac-x0396
     RDKit          3D

 14 16  0  0  0  0  0  0  0  0999 V2000
   -4.1440   15.4210    1.7510 N   0  0  0  0  0  0  0  0  0  0  0  0
   -4.6030   14.3210    0.9030 C   0  0  1  0  0  0  0  0  0  0  0  0
   -6.0600   13.8820    1.2830 C   0  0  2  0  0  0  0  0  0  0  0  0
   -4.4850   14.8190   -0.4760 N   0  0  0  0  0  0  0  0  0  0  0  0
   -5.4610   14.2680   -1.3570 C   0  0  1  0  0  0  0  0  0  0  0  0
   -7.1360   13.9300    0.1480 C   0  0  2  0  0  0  0  0  0  0  0  0
   -6.7260   14.6210    2.4040 C   0  0  0  0  0  0  0  0  0  0  0  0
   -3.3220   14.3650   -1.1800 N   0  0  0  0  0  0  0  0  0  0  0  0
   -6.7680   14.6860   -1.0410 N   0  0  0  0  0  0  0  0  0  0  0  0
   -8.4320   14.4470    0.7980 C   0  0  0  0  0  0  0  0  0  0  0  0
   -8.0060   14.9070    2.1470 C   0  0  0  0  0  0  0  0  0  0  0  0
   -5.0900   14.7750   -2.6490 N   0  0  0  0  0  0  0  0  0  0  0  0
   -3.6240   14.8290   -2.5470 C   0  0  0  0  0  0  0  0  0  0  0  0
   -2.1480   15.0640   -0.7500 O   0  0  0  0  0  0  0  0  0  0  0  0
  2  1  1  1
  2  3  1  0
  2  4  1  0
  4  5  1  0
  3  6  1  0
  3  7  1  1
  4  8  1  0
  5  9  1  1
  6  9  1  0
  6 10  1  1
  7 11  2  0
 10 11  1  0
  5 12  1  0
  8 13  1  0
 12 13  1  0
  8 14  1  0
M  END
