mac-x0193-diamond-x0837_0_A
     RDKit          3D

 25 26  0  0  0  0  0  0  0  0999 V2000
    0.3250   10.5550   -2.9710 O   0  0  0  0  0  0  0  0  0  0  0  0
    0.7150   11.8900   -3.2130 C   0  0  0  0  0  0  0  0  0  0  0  0
    0.9850   12.6140   -2.2290 N   0  0  0  0  0  0  0  0  0  0  0  0
    0.7950   12.4240   -4.5940 C   0  0  0  0  0  0  0  0  0  0  0  0
    0.1700   11.5670   -5.5590 N   0  0  0  0  0  0  0  0  0  0  0  0
    1.3920   13.9460   -2.0550 C   0  0  0  0  0  0  0  0  0  0  0  0
    0.7370   11.2880   -6.8110 C   0  0  0  0  0  0  0  0  0  0  0  0
    0.2740   14.8100   -1.5050 C   0  0  0  0  0  0  0  0  0  0  0  0
    1.8530   11.7300   -7.0660 O   0  0  0  0  0  0  0  0  0  0  0  0
    0.0930   10.5000   -7.8150 N   0  0  0  0  0  0  0  0  0  0  0  0
   -0.9450   14.0330   -1.1090 C   0  0  0  0  0  0  0  0  0  0  0  0
   -2.7000   14.4810   -2.2180 I   0  0  0  0  0  0  0  0  0  0  0  0
    0.7630   10.0220   -9.0160 C   0  0  0  0  0  0  0  0  0  0  0  0
    1.3010    8.6240   -8.8140 C   0  0  0  0  0  0  0  0  0  0  0  0
   -0.1590    9.9980  -10.2160 C   0  0  0  0  0  0  0  0  0  0  0  0
   -4.1520   15.3210   -0.9630 C   0  0  2  0  0  0  0  0  0  0  0  0
    2.1540    8.2280  -10.0250 C   0  0  0  0  0  0  0  0  0  0  0  0
    0.6180    9.4950  -11.4160 C   0  0  0  0  0  0  0  0  0  0  0  0
   -3.6920   15.4770    0.4180 C   0  0  0  0  0  0  0  0  0  0  0  0
   -5.4240   14.4830   -1.0220 C   0  0  0  0  0  0  0  0  0  0  0  0
    1.1950    8.1320  -11.1980 C   0  0  0  0  0  0  0  0  0  0  0  0
   -4.4060   15.2730    1.4880 C   0  0  0  0  0  0  0  0  0  0  0  0
   -6.3280   14.7430    0.1080 C   0  0  0  0  0  0  0  0  0  0  0  0
   -7.5860   14.8740   -0.0080 O   0  0  0  0  0  0  0  0  0  0  0  0
   -5.7730   14.8410    1.4160 N   0  0  0  0  0  0  0  0  0  0  0  0
  1  2  1  0
  2  3  2  3
  2  4  1  0
  4  5  1  0
  3  6  1  0
  5  7  1  0
  6  8  1  0
  7  9  2  0
  7 10  1  0
  8 11  1  0
 11 12  1  0
 10 13  1  0
 13 14  1  0
 13 15  1  0
 16 12  1  6
 14 17  1  0
 15 18  1  0
 16 19  1  0
 16 20  1  0
 17 21  1  0
 18 21  1  0
 19 22  2  0
 20 23  1  0
 23 24  2  0
 22 25  1  0
 23 25  1  0
M  END
