mac-x0179-mac-x0132
     RDKit          3D

 29 32  0  0  0  0  0  0  0  0999 V2000
    1.6170   12.9440   -2.2690 O   0  0  0  0  0  0  0  0  0  0  0  0
    1.0280   12.1720   -3.2000 C   0  0  0  0  0  0  0  0  0  0  0  0
    0.6750   11.0380   -2.9140 O   0  0  0  0  0  0  0  0  0  0  0  0
    0.8630   12.8130   -4.5680 C   0  0  0  0  0  0  0  0  0  0  0  0
    0.0650   12.0080   -5.4780 N   0  0  0  0  0  0  0  0  0  0  0  0
    0.7210   11.4770   -6.5500 C   0  0  0  0  0  0  0  0  0  0  0  0
   -1.1200   11.3530   -5.2690 C   0  0  0  0  0  0  0  0  0  0  0  0
    1.7840   11.8090   -6.9920 O   0  0  0  0  0  0  0  0  0  0  0  0
   -2.0630   11.5170   -4.4290 N   0  0  0  0  0  0  0  0  0  0  0  0
   -0.0740   10.3800   -7.0720 C   0  0  0  0  0  0  0  0  0  0  0  0
   -1.2000   10.2920   -6.2870 C   0  0  0  0  0  0  0  0  0  0  0  0
   -2.1270   12.5370   -3.4060 C   0  0  0  0  0  0  0  0  0  0  0  0
    0.1600    9.5270   -8.1350 C   0  0  0  0  0  0  0  0  0  0  0  0
   -2.1670    9.3320   -6.5190 C   0  0  0  0  0  0  0  0  0  0  0  0
   -1.9770   13.9270   -4.0370 C   0  0  0  0  0  0  0  0  0  0  0  0
   -0.8040    8.5500   -8.3890 C   0  0  0  0  0  0  0  0  0  0  0  0
   -1.9600    8.4500   -7.5880 C   0  0  0  0  0  0  0  0  0  0  0  0
   -2.2300   15.1140   -3.0990 C   0  0  0  0  0  0  0  0  0  0  0  0
   -3.5420   15.0170   -2.3770 C   0  0  0  0  0  0  0  0  0  0  0  0
   -4.6780   14.8180   -3.1360 C   0  0  0  0  0  0  0  0  0  0  0  0
   -3.6750   15.1070   -0.9850 C   0  0  0  0  0  0  0  0  0  0  0  0
   -4.9520   14.9740   -0.3810 C   0  0  0  0  0  0  0  0  0  0  0  0
   -5.9240   14.6920   -2.5350 C   0  0  0  0  0  0  0  0  0  0  0  0
   -5.1950   15.0380    0.9840 C   0  0  0  0  0  0  0  0  0  0  0  0
   -6.0830   14.7560   -1.1680 C   0  0  0  0  0  0  0  0  0  0  0  0
   -4.1310   15.2810    1.8530 N   0  0  0  0  0  0  0  0  0  0  0  0
   -7.3130   14.6020   -0.6660 N   0  0  0  0  0  0  0  0  0  0  0  0
   -6.4230   14.8760    1.5180 N   0  0  0  0  0  0  0  0  0  0  0  0
   -7.4210   14.6620    0.6620 C   0  0  0  0  0  0  0  0  0  0  0  0
  1  2  1  0
  2  3  2  0
  2  4  1  0
  4  5  1  0
  5  6  1  0
  5  7  1  0
  6  8  2  0
  7  9  2  3
  6 10  1  0
  7 11  1  0
 10 11  2  0
  9 12  1  0
 10 13  1  0
 11 14  1  0
 12 15  1  0
 13 16  2  0
 14 17  2  0
 16 17  1  0
 15 18  1  0
 18 19  1  0
 19 20  2  0
 19 21  1  0
 21 22  2  0
 20 23  1  0
 22 24  1  0
 22 25  1  0
 23 25  2  0
 24 26  1  0
 25 27  1  0
 24 28  2  0
 27 29  2  0
 28 29  1  0
M  END
