mac-x0455-mac-x0436
     RDKit          3D

 20 21  0  0  0  0  0  0  0  0999 V2000
   -2.4630   14.4310   -2.8340 C   0  0  0  0  0  0  0  0  0  0  0  0
   -1.1830   14.4430   -3.6790 C   0  0  1  0  0  0  0  0  0  0  0  0
   -1.0260   15.8010   -4.1520 O   0  0  0  0  0  0  0  0  0  0  0  0
    0.0050   14.1920   -2.7070 C   0  0  0  0  0  0  0  0  0  0  0  0
   -1.2310   13.4960   -4.9620 C   0  0  0  0  0  0  0  0  0  0  0  0
    0.8590   15.0180   -2.3810 O   0  0  0  0  0  0  0  0  0  0  0  0
   -0.0530   12.9000   -2.2870 N   0  0  0  0  0  0  0  0  0  0  0  0
   -2.3790   12.4910   -5.0000 C   0  0  0  0  0  0  0  0  0  0  0  0
    0.0610   12.8320   -5.4210 C   0  0  0  0  0  0  0  0  0  0  0  0
    0.8030   12.0860   -2.7490 C   0  0  0  0  0  0  0  0  0  0  0  0
   -2.3040   11.2590   -5.5580 C   0  0  0  0  0  0  0  0  0  0  0  0
    0.1340   11.5930   -5.9670 C   0  0  0  0  0  0  0  0  0  0  0  0
    0.8040   10.7810   -2.4560 O   0  0  0  0  0  0  0  0  0  0  0  0
    1.8920   12.5340   -3.6800 C   0  0  0  0  0  0  0  0  0  0  0  0
   -1.0590   10.6670   -6.2050 C   0  0  0  0  0  0  0  0  0  0  0  0
   -1.1550   10.4150   -7.7170 C   0  0  0  0  0  0  0  0  0  0  0  0
   -0.9200    9.3230   -5.5220 C   0  0  0  0  0  0  0  0  0  0  0  0
   -1.5410    9.2420   -8.2700 C   0  0  0  0  0  0  0  0  0  0  0  0
   -1.3190    8.1570   -6.0780 C   0  0  0  0  0  0  0  0  0  0  0  0
   -1.9260    8.0630   -7.4410 C   0  0  0  0  0  0  0  0  0  0  0  0
  2  1  1  1
  2  3  1  0
  2  4  1  0
  2  5  1  0
  4  6  2  0
  4  7  1  0
  5  8  1  0
  5  9  1  0
  7 10  2  3
  8 11  2  0
  9 12  2  0
 10 13  1  0
 10 14  1  0
 15 11  1  0
 12 15  1  0
 15 16  1  0
 15 17  1  0
 16 18  2  0
 17 19  2  0
 18 20  1  0
 19 20  1  0
M  END
