mac-x0453-diamond-x0962_0_A
     RDKit          3D

  9  9  0  0  0  0  0  0  0  0999 V2000
   -7.0290   14.1100    2.4040 N   0  0  0  0  0  0  0  0  0  0  0  0
   -6.0590   13.7810    1.3600 C   0  0  0  0  0  0  0  0  0  0  0  0
   -4.8450   14.7220    1.3760 C   0  0  0  0  0  0  0  0  0  0  0  0
   -4.1630   14.8160    0.0590 C   0  0  0  0  0  0  0  0  0  0  0  0
   -2.8440   14.5390   -0.2260 C   0  0  0  0  0  0  0  0  0  0  0  0
   -4.8290   15.2090   -1.0820 N   0  0  0  0  0  0  0  0  0  0  0  0
   -2.7220   14.7700   -1.5590 N   0  0  0  0  0  0  0  0  0  0  0  0
   -3.9320   15.1700   -2.0370 C   0  0  0  0  0  0  0  0  0  0  0  0
   -1.5550   14.6230   -2.3080 N   0  0  0  0  0  0  0  0  0  0  0  0
  1  2  1  0
  2  3  1  0
  3  4  1  0
  4  5  2  0
  4  6  1  0
  5  7  1  0
  6  8  2  0
  7  8  1  0
  7  9  1  0
M  END
