mac-x0347-mac-x0344
     RDKit          3D

 24 26  0  0  0  0  0  0  0  0999 V2000
    1.2570   14.1740   -3.6550 O   0  0  0  0  0  0  0  0  0  0  0  0
    0.3300   13.3480   -2.9730 C   0  0  0  0  0  0  0  0  0  0  0  0
    0.8460   13.1980   -1.6590 O   0  0  0  0  0  0  0  0  0  0  0  0
    0.1920   11.8800   -3.6260 C   0  0  0  0  0  0  0  0  0  0  0  0
   -1.0190   14.0500   -2.9340 C   0  0  0  0  0  0  0  0  0  0  0  0
    0.2150   10.9080   -2.8660 O   0  0  0  0  0  0  0  0  0  0  0  0
    0.0430   11.8080   -5.0220 N   0  0  0  0  0  0  0  0  0  0  0  0
   -1.8280   14.0530   -1.7720 C   0  0  0  0  0  0  0  0  0  0  0  0
   -1.5290   14.7150   -4.0420 C   0  0  0  0  0  0  0  0  0  0  0  0
   -3.0810   14.6920   -1.7620 C   0  0  0  0  0  0  0  0  0  0  0  0
   -2.7240   15.3440   -4.0820 N   0  0  0  0  0  0  0  0  0  0  0  0
   -0.7420   10.8540   -5.7400 C   0  0  0  0  0  0  0  0  0  0  0  0
   -3.4610   15.3110   -2.9460 C   0  0  0  0  0  0  0  0  0  0  0  0
   -3.9650   14.7120   -0.5870 C   0  0  0  0  0  0  0  0  0  0  0  0
   -0.2610   10.3640   -6.9710 C   0  0  0  0  0  0  0  0  0  0  0  0
   -1.9710   10.3770   -5.2760 C   0  0  0  0  0  0  0  0  0  0  0  0
   -3.5840   15.2590    0.6510 C   0  0  0  0  0  0  0  0  0  0  0  0
   -5.2530   14.1590   -0.6930 C   0  0  0  0  0  0  0  0  0  0  0  0
   -0.9990    9.4230   -7.7070 C   0  0  0  0  0  0  0  0  0  0  0  0
   -2.7050    9.4380   -6.0140 C   0  0  0  0  0  0  0  0  0  0  0  0
   -4.4630   15.2510    1.7350 C   0  0  0  0  0  0  0  0  0  0  0  0
   -6.1290   14.1490    0.3870 C   0  0  0  0  0  0  0  0  0  0  0  0
   -2.2220    8.9600   -7.2280 C   0  0  0  0  0  0  0  0  0  0  0  0
   -5.7360   14.6950    1.6000 C   0  0  0  0  0  0  0  0  0  0  0  0
  2  1  1  0
  2  3  1  0
  2  4  1  0
  2  5  1  0
  4  6  2  0
  4  7  1  0
  5  8  2  0
  5  9  1  0
  8 10  1  0
  9 11  2  0
  7 12  1  0
 10 13  2  0
 11 13  1  0
 10 14  1  0
 12 15  2  0
 12 16  1  0
 14 17  2  0
 14 18  1  0
 15 19  1  0
 16 20  2  0
 17 21  1  0
 18 22  2  0
 19 23  2  0
 20 23  1  0
 21 24  2  0
 22 24  1  0
M  END
