mac-x0436-mac-x0161
     RDKit          3D

 34 38  0  0  0  0  0  0  0  0999 V2000
    2.9140   12.2970   -3.3110 O   0  0  0  0  0  0  0  0  0  0  0  0
    2.3170   13.3180   -3.9480 C   0  0  0  0  0  0  0  0  0  0  0  0
    2.3450   14.4340   -3.4660 O   0  0  0  0  0  0  0  0  0  0  0  0
    1.6840   12.8690   -5.2370 C   0  0  0  0  0  0  0  0  0  0  0  0
    0.2580   13.3420   -5.4250 C   0  0  0  0  0  0  0  0  0  0  0  0
   -0.5230   12.1950   -6.0280 C   0  0  0  0  0  0  0  0  0  0  0  0
   -2.0310   12.0460   -5.6670 C   0  0  0  0  0  0  0  0  0  0  0  0
    0.1240   11.3770   -6.8100 N   0  0  0  0  0  0  0  0  0  0  0  0
   -2.1490   12.5630   -4.4780 N   0  0  0  0  0  0  0  0  0  0  0  0
   -2.4490   10.7580   -5.9660 N   0  0  0  0  0  0  0  0  0  0  0  0
   -0.5490   10.2980   -7.3750 C   0  0  0  0  0  0  0  0  0  0  0  0
   -1.8450    9.9740   -6.9630 C   0  0  0  0  0  0  0  0  0  0  0  0
    0.0840    9.5360   -8.3560 C   0  0  0  0  0  0  0  0  0  0  0  0
   -1.4110   11.9690   -3.4400 C   0  0  0  0  0  0  0  0  0  0  0  0
   -0.5750    8.4480   -8.9320 C   0  0  0  0  0  0  0  0  0  0  0  0
   -2.5080    8.8830   -7.5380 C   0  0  0  0  0  0  0  0  0  0  0  0
   -1.5210   12.2760   -2.1130 C   0  0  0  0  0  0  0  0  0  0  0  0
   -0.4200   10.9690   -3.4810 C   0  0  0  0  0  0  0  0  0  0  0  0
   -2.3590   13.2130   -1.3310 C   0  0  0  0  0  0  0  0  0  0  0  0
    0.0250   10.3500   -4.5930 O   0  0  0  0  0  0  0  0  0  0  0  0
   -1.8720    8.1220   -8.5230 C   0  0  0  0  0  0  0  0  0  0  0  0
   -0.6290   11.5090   -1.4060 O   0  0  0  0  0  0  0  0  0  0  0  0
    0.0710   10.6760   -2.2590 N   0  0  0  0  0  0  0  0  0  0  0  0
   -0.7430    9.2450   -5.0520 C   0  0  0  0  0  0  0  0  0  0  0  0
   -2.2540   14.6180   -1.7220 N   0  0  0  0  0  0  0  0  0  0  0  0
   -3.5630   15.1760   -2.0170 C   0  0  0  0  0  0  0  0  0  0  0  0
   -1.5470   15.3570   -0.7110 C   0  0  1  0  0  0  0  0  0  0  0  0
   -4.3140   15.5770   -0.8180 N   0  0  0  0  0  0  0  0  0  0  0  0
   -2.3320   15.3920    0.6100 C   0  0  1  0  0  0  0  0  0  0  0  0
   -0.2560   14.7530   -0.4090 N   0  0  0  0  0  0  0  0  0  0  0  0
   -3.7970   14.9460    0.3830 C   0  0  1  0  0  0  0  0  0  0  0  0
   -1.5930   14.4580    1.4880 N   0  0  0  0  0  0  0  0  0  0  0  0
   -0.2340   14.4060    1.0010 C   0  0  0  0  0  0  0  0  0  0  0  0
   -4.6770   15.4530    1.4230 N   0  0  0  0  0  0  0  0  0  0  0  0
  1  2  1  0
  2  3  2  0
  2  4  1  0
  4  5  1  0
  5  6  1  0
  6  7  1  0
  6  8  2  0
  7  9  2  3
  7 10  1  0
  8 11  1  0
 10 12  1  0
 11 12  2  0
 11 13  1  0
  9 14  1  0
 13 15  2  0
 12 16  1  0
 14 17  2  0
 14 18  1  0
 17 19  1  0
 18 20  1  0
 15 21  1  0
 16 21  2  0
 17 22  1  0
 18 23  2  0
 22 23  1  0
 20 24  1  0
 19 25  1  0
 25 26  1  0
 25 27  1  0
 26 28  1  0
 27 29  1  0
 27 30  1  1
 28 31  1  0
 29 31  1  0
 29 32  1  1
 30 33  1  0
 32 33  1  0
 31 34  1  1
M  END
