mac-x0411-mac-x0398
     RDKit          3D

 25 26  0  0  0  0  0  0  0  0999 V2000
    0.6130    8.9460   -7.6990 Cl  0  0  0  0  0  0  0  0  0  0  0  0
   -0.6550    9.6280   -6.7450 C   0  0  0  0  0  0  0  0  0  0  0  0
   -0.5270   10.8840   -6.1060 C   0  0  0  0  0  0  0  0  0  0  0  0
   -1.8260    8.8870   -6.6320 C   0  0  0  0  0  0  0  0  0  0  0  0
    0.6770   11.5430   -6.2720 O   0  0  0  0  0  0  0  0  0  0  0  0
   -1.6100   11.4090   -5.3440 C   0  0  0  0  0  0  0  0  0  0  0  0
   -2.8870    9.3820   -5.8870 C   0  0  0  0  0  0  0  0  0  0  0  0
   -1.5860   12.7670   -4.6250 C   0  0  0  0  0  0  0  0  0  0  0  0
    1.0570   12.4320   -5.2170 C   0  0  0  0  0  0  0  0  0  0  0  0
   -2.7830   10.6260   -5.2520 C   0  0  0  0  0  0  0  0  0  0  0  0
    0.9380   11.9250   -3.7810 C   0  0  0  0  0  0  0  0  0  0  0  0
   -2.5210   12.9400   -3.4070 C   0  0  0  0  0  0  0  0  0  0  0  0
    1.3910   12.7840   -2.8490 O   0  0  0  0  0  0  0  0  0  0  0  0
    0.4860   10.8350   -3.4510 O   0  0  0  0  0  0  0  0  0  0  0  0
   -2.2860   14.2110   -2.7380 O   0  0  0  0  0  0  0  0  0  0  0  0
   -3.3420   15.0710   -2.7870 C   0  0  0  0  0  0  0  0  0  0  0  0
   -3.6260   15.7830   -3.7310 O   0  0  0  0  0  0  0  0  0  0  0  0
   -4.1360   15.0250   -1.5340 C   0  0  0  0  0  0  0  0  0  0  0  0
   -5.5280   15.0830   -1.5450 C   0  0  0  0  0  0  0  0  0  0  0  0
   -3.4610   14.9160   -0.3100 C   0  0  0  0  0  0  0  0  0  0  0  0
   -6.2070   15.1940   -2.7200 O   0  0  0  0  0  0  0  0  0  0  0  0
   -6.2480   15.0240   -0.3550 C   0  0  0  0  0  0  0  0  0  0  0  0
   -4.1900   14.8590    0.8860 C   0  0  0  0  0  0  0  0  0  0  0  0
   -5.5900   14.9080    0.8660 C   0  0  0  0  0  0  0  0  0  0  0  0
   -6.3280   14.8410    2.0540 N   0  0  0  0  0  0  0  0  0  0  0  0
  1  2  1  0
  2  3  2  0
  2  4  1  0
  3  5  1  0
  3  6  1  0
  4  7  2  0
  6  8  1  0
  5  9  1  0
  6 10  2  0
  7 10  1  0
  9 11  1  0
  8 12  1  0
 11 13  1  0
 11 14  2  0
 12 15  1  0
 15 16  1  0
 16 17  2  0
 16 18  1  0
 18 19  2  0
 18 20  1  0
 19 21  1  0
 19 22  1  0
 20 23  2  0
 22 24  2  0
 23 24  1  0
 24 25  1  0
M  END
