mac-x0396-mac-x0163
     RDKit          3D

 24 27  0  0  0  0  0  0  0  0999 V2000
   -4.0350   15.5600   -1.0230 C   0  0  0  0  0  0  0  0  0  0  0  0
   -5.4090   15.1850   -0.6100 C   0  0  0  0  0  0  0  0  0  0  0  0
   -5.7000   14.8990    0.7090 C   0  0  0  0  0  0  0  0  0  0  0  0
   -6.4340   15.1110   -1.5310 C   0  0  0  0  0  0  0  0  0  0  0  0
   -7.7040   14.7760   -1.2200 N   0  0  0  0  0  0  0  0  0  0  0  0
   -7.0020   14.5470    1.0690 C   0  0  0  0  0  0  0  0  0  0  0  0
   -4.6200   14.9720    1.7180 C   0  0  0  0  0  0  0  0  0  0  0  0
   -7.9590   14.5010    0.0760 C   0  0  0  0  0  0  0  0  0  0  0  0
   -3.6410   13.8230    1.5020 C   0  0  0  0  0  0  0  0  0  0  0  0
   -2.3490   14.2220    0.8690 C   0  0  0  0  0  0  0  0  0  0  0  0
   -2.2280   14.2930   -0.5060 C   0  0  0  0  0  0  0  0  0  0  0  0
   -1.3360   14.4900    1.6970 N   0  0  0  0  0  0  0  0  0  0  0  0
   -1.0090   14.6520   -1.0320 C   0  0  0  0  0  0  0  0  0  0  0  0
   -0.2010   14.8220    1.0950 C   0  0  0  0  0  0  0  0  0  0  0  0
    0.0090   14.9150   -0.2150 N   0  0  0  0  0  0  0  0  0  0  0  0
   -0.7840   14.7590   -2.4020 N   0  0  0  0  0  0  0  0  0  0  0  0
    0.5760   14.9500   -2.8920 C   0  0  0  0  0  0  0  0  0  0  0  0
   -1.8740   14.6730   -3.3790 C   0  0  0  0  0  0  0  0  0  0  0  0
    0.9030   13.8200   -3.8590 C   0  0  0  0  0  0  0  0  0  0  0  0
   -1.2820   14.7480   -4.7840 C   0  0  0  0  0  0  0  0  0  0  0  0
    2.3750   13.7930   -4.3380 C   0  0  0  0  0  0  0  0  0  0  0  0
    1.2390   12.4630   -3.1550 C   0  0  0  0  0  0  0  0  0  0  0  0
   -0.1330   13.7460   -4.9930 C   0  0  0  0  0  0  0  0  0  0  0  0
    2.7080   12.9320   -3.1100 C   0  0  0  0  0  0  0  0  0  0  0  0
  1  2  1  0
  2  3  2  0
  2  4  1  0
  4  5  2  0
  3  6  1  0
  3  7  1  0
  5  8  1  0
  6  8  2  0
  7  9  1  0
  9 10  1  0
 10 11  2  0
 10 12  1  0
 11 13  1  0
 12 14  2  0
 13 15  2  0
 14 15  1  0
 13 16  1  0
 16 17  1  0
 16 18  1  0
 19 17  1  0
 18 20  1  0
 19 21  1  0
 19 22  1  0
 19 23  1  0
 20 23  1  0
 21 24  1  0
 22 24  1  0
M  END
