mac-x0180-mac-x0588
     RDKit          3D

 21 23  0  0  0  0  0  0  0  0999 V2000
   -7.8220   14.5180    1.4150 C   0  0  0  0  0  0  0  0  0  0  0  0
   -6.7910   14.6900    0.3330 C   0  0  0  0  0  0  0  0  0  0  0  0
   -7.1020   14.7810   -0.8470 O   0  0  0  0  0  0  0  0  0  0  0  0
   -5.4900   14.7430    0.7860 N   0  0  0  0  0  0  0  0  0  0  0  0
   -4.4060   14.4810   -0.1460 C   0  0  2  0  0  0  0  0  0  0  0  0
   -3.0680   14.6010    0.5870 C   0  0  0  0  0  0  0  0  0  0  0  0
   -4.5260   15.3670   -1.3590 C   0  0  0  0  0  0  0  0  0  0  0  0
   -1.8750   14.9080   -0.3350 C   0  0  0  0  0  0  0  0  0  0  0  0
   -3.4750   15.5870   -2.1610 C   0  0  0  0  0  0  0  0  0  0  0  0
   -2.1280   14.9780   -1.8840 C   0  0  1  0  0  0  0  0  0  0  0  0
   -1.0610   15.9320    0.3200 N   0  0  0  0  0  0  0  0  0  0  0  0
   -0.7030   14.0290   -0.1210 N   0  0  0  0  0  0  0  0  0  0  0  0
   -0.9100   15.3580   -2.8170 C   0  0  0  0  0  0  0  0  0  0  0  0
   -0.1120   14.9590    0.8120 C   0  0  0  0  0  0  0  0  0  0  0  0
   -0.5020   14.0960   -3.3450 O   0  0  0  0  0  0  0  0  0  0  0  0
    0.2250   15.6760   -2.0260 O   0  0  0  0  0  0  0  0  0  0  0  0
   -1.0070   16.2170   -4.1280 C   0  0  1  0  0  0  0  0  0  0  0  0
   -1.5190   17.5580   -4.0780 O   0  0  0  0  0  0  0  0  0  0  0  0
    0.3790   16.3560   -4.8070 C   0  0  0  0  0  0  0  0  0  0  0  0
    0.4250   17.7650   -5.3540 C   0  0  0  0  0  0  0  0  0  0  0  0
   -1.0120   18.2080   -5.2370 C   0  0  0  0  0  0  0  0  0  0  0  0
  1  2  1  0
  2  3  2  0
  2  4  1  0
  5  4  1  1
  5  6  1  0
  5  7  1  0
  6  8  1  0
  7  9  2  0
  8 10  1  0
  9 10  1  0
  8 11  1  0
  8 12  1  0
 10 13  1  6
 11 14  1  0
 12 14  1  0
 13 15  1  0
 13 16  1  0
 17 13  1  1
 17 18  1  0
 17 19  1  0
 19 20  1  0
 18 21  1  0
 20 21  1  0
M  END
