mac-x0387-mac-x0139
     RDKit          3D

 21 23  0  0  0  0  0  0  0  0999 V2000
   -3.6030   16.5110    1.3230 N   0  0  0  0  0  0  0  0  0  0  0  0
   -3.0990   15.2350    0.9800 C   0  0  2  0  0  0  0  0  0  0  0  0
   -1.7570   15.0920    1.5350 N   0  0  0  0  0  0  0  0  0  0  0  0
   -3.1620   15.0140   -0.6050 C   0  0  2  0  0  0  0  0  0  0  0  0
   -4.1290   14.3100    1.3210 N   0  0  0  0  0  0  0  0  0  0  0  0
   -1.9450   15.4320   -1.4160 C   0  0  1  0  0  0  0  0  0  0  0  0
   -0.6390   14.7690    0.6180 C   0  0  0  0  0  0  0  0  0  0  0  0
   -4.3280   15.4310   -1.4420 C   0  0  0  0  0  0  0  0  0  0  0  0
   -3.3560   13.5210   -0.5890 C   0  0  0  0  0  0  0  0  0  0  0  0
   -3.9510   13.2100    0.5600 C   0  0  0  0  0  0  0  0  0  0  0  0
   -0.6350   15.6240   -0.6890 C   0  0  1  0  0  0  0  0  0  0  0  0
   -1.9250   14.6050   -2.6650 C   0  0  0  0  0  0  0  0  0  0  0  0
   -4.2550   15.1450   -2.7580 C   0  0  0  0  0  0  0  0  0  0  0  0
    0.2870   15.6090   -1.8660 N   0  0  0  0  0  0  0  0  0  0  0  0
   -3.0840   14.4860   -3.3070 C   0  0  0  0  0  0  0  0  0  0  0  0
   -0.3380   16.0930   -3.1180 C   0  0  0  0  0  0  0  0  0  0  0  0
    1.0840   14.4040   -2.0980 C   0  0  0  0  0  0  0  0  0  0  0  0
    0.8100   13.6560   -3.3970 C   0  0  0  0  0  0  0  0  0  0  0  0
    0.8370   12.2220   -3.0330 C   0  0  0  0  0  0  0  0  0  0  0  0
    1.0860   11.7900   -1.9350 O   0  0  0  0  0  0  0  0  0  0  0  0
    0.5490   11.3900   -4.0400 O   0  0  0  0  0  0  0  0  0  0  0  0
  2  1  1  6
  2  3  1  0
  2  4  1  0
  2  5  1  0
  4  6  1  0
  3  7  1  0
  4  8  1  6
  4  9  1  0
  5 10  1  0
  9 10  2  0
  6 11  1  0
  7 11  1  0
  6 12  1  6
  8 13  2  0
 11 14  1  6
 12 15  2  0
 13 15  1  0
 14 16  1  0
 14 17  1  0
 17 18  1  0
 18 19  1  0
 19 20  2  0
 19 21  1  0
M  END
