mac-x0417-diamond-x0662_0_A
     RDKit          3D

 24 26  0  0  0  0  0  0  0  0999 V2000
    1.4110   12.7010   -3.0080 O   0  0  0  0  0  0  0  0  0  0  0  0
    0.8030   11.8420   -3.8690 C   0  0  0  0  0  0  0  0  0  0  0  0
    0.4510   10.7410   -3.4640 O   0  0  0  0  0  0  0  0  0  0  0  0
    0.5710   12.3150   -5.3060 C   0  0  2  0  0  0  0  0  0  0  0  0
   -0.7480   12.9330   -5.4880 C   0  0  0  0  0  0  0  0  0  0  0  0
    0.4570   11.2760   -6.4130 C   0  0  0  0  0  0  0  0  0  0  0  0
   -1.7750   12.2930   -5.2790 O   0  0  0  0  0  0  0  0  0  0  0  0
    1.1640   11.4330   -7.5940 N   0  0  0  0  0  0  0  0  0  0  0  0
   -0.3080   10.1920   -6.4690 C   0  0  0  0  0  0  0  0  0  0  0  0
    0.8310   10.4560   -8.4320 C   0  0  0  0  0  0  0  0  0  0  0  0
   -0.1220    9.4410   -7.7850 C   0  0  2  0  0  0  0  0  0  0  0  0
   -1.2520    9.6570   -5.5220 C   0  0  0  0  0  0  0  0  0  0  0  0
    1.3580   10.4840   -9.7740 N   0  0  0  0  0  0  0  0  0  0  0  0
   -1.4870    9.1410   -8.3250 C   0  0  0  0  0  0  0  0  0  0  0  0
   -2.3370    9.0510   -6.0310 C   0  0  0  0  0  0  0  0  0  0  0  0
    1.9060    9.4960  -10.6750 C   0  0  0  0  0  0  0  0  0  0  0  0
   -2.5250    8.9570   -7.4760 C   0  0  0  0  0  0  0  0  0  0  0  0
    1.8780    8.2960  -10.4210 O   0  0  0  0  0  0  0  0  0  0  0  0
    2.5690    9.9810  -11.9680 C   0  0  0  0  0  0  0  0  0  0  0  0
    2.3650   11.1790  -12.7420 C   0  0  0  0  0  0  0  0  0  0  0  0
    3.5440    9.2440  -12.5810 N   0  0  0  0  0  0  0  0  0  0  0  0
    3.9320    9.9490  -13.6670 N   0  0  0  0  0  0  0  0  0  0  0  0
    3.2480   11.1200  -13.8070 C   0  0  0  0  0  0  0  0  0  0  0  0
    4.9770    9.4320  -14.5300 C   0  0  0  0  0  0  0  0  0  0  0  0
  1  2  1  0
  2  3  2  0
  2  4  1  0
  4  5  1  1
  4  6  1  0
  5  7  2  0
  6  8  1  0
  6  9  2  0
  8 10  2  0
  9 11  1  0
 10 11  1  0
  9 12  1  0
 10 13  1  0
 11 14  1  6
 12 15  2  0
 13 16  1  0
 14 17  2  0
 15 17  1  0
 16 18  2  0
 16 19  1  0
 19 20  1  0
 19 21  2  0
 21 22  1  0
 20 23  2  0
 22 23  1  0
 22 24  1  0
M  END
