mac-x0357-mac-x0417
     RDKit          3D

 18 19  0  0  0  0  0  0  0  0999 V2000
    2.3940   12.8410   -4.4790 C   0  0  0  0  0  0  0  0  0  0  0  0
    1.0990   12.2860   -4.9260 C   0  0  0  0  0  0  0  0  0  0  0  0
    0.9410   12.0470   -6.2090 C   0  0  0  0  0  0  0  0  0  0  0  0
    0.0740   12.0100   -3.9900 C   0  0  0  0  0  0  0  0  0  0  0  0
    2.0830   12.3070   -6.8560 O   0  0  0  0  0  0  0  0  0  0  0  0
    0.3460   12.9100   -2.4490 S   0  0  0  0  0  0  0  0  0  0  0  0
   -0.9700   11.2470   -4.0400 C   0  0  0  0  0  0  0  0  0  0  0  0
   -0.1890   11.5470   -6.9860 C   0  0  0  0  0  0  0  0  0  0  0  0
   -1.1080   13.4870   -2.8900 O   0  0  0  0  0  0  0  0  0  0  0  0
    1.4810   12.1510   -2.3270 O   0  0  0  0  0  0  0  0  0  0  0  0
   -0.3610   12.4100   -1.2190 O   0  0  0  0  0  0  0  0  0  0  0  0
    0.9980   14.4110   -2.7940 C   0  0  0  0  0  0  0  0  0  0  0  0
   -1.4160   10.3990   -5.2060 C   0  0  1  0  0  0  0  0  0  0  0  0
   -1.1940   10.8390   -6.5070 C   0  0  0  0  0  0  0  0  0  0  0  0
   -2.1800   10.3470   -7.4560 C   0  0  0  0  0  0  0  0  0  0  0  0
   -0.9380    9.0350   -5.4420 C   0  0  0  0  0  0  0  0  0  0  0  0
   -1.3300    8.3660   -6.5350 C   0  0  0  0  0  0  0  0  0  0  0  0
   -2.2420    9.0390   -7.4640 C   0  0  0  0  0  0  0  0  0  0  0  0
  1  2  1  0
  2  3  2  0
  2  4  1  0
  3  5  1  0
  4  6  1  0
  4  7  2  0
  3  8  1  0
  6  9  2  0
  6 10  1  0
  6 11  1  0
  6 12  1  0
 13  7  1  1
  8 14  2  0
 13 14  1  0
 14 15  1  0
 13 16  1  0
 16 17  2  0
 15 18  2  0
 17 18  1  0
M  END
