mac-x0584-mac-x0180
     RDKit          3D

 25 28  0  0  0  0  0  0  0  0999 V2000
   -7.1660   14.4930    1.3150 C   0  0  0  0  0  0  0  0  0  0  0  0
   -6.7530   14.7380   -0.1120 C   0  0  0  0  0  0  0  0  0  0  0  0
   -7.4370   14.3060   -1.0350 O   0  0  0  0  0  0  0  0  0  0  0  0
   -5.6340   15.4520   -0.4520 N   0  0  0  0  0  0  0  0  0  0  0  0
   -4.2920   15.2090   -0.3290 C   0  0  0  0  0  0  0  0  0  0  0  0
   -3.7210   15.0680    0.9330 N   0  0  0  0  0  0  0  0  0  0  0  0
   -3.3540   15.0840   -1.3430 C   0  0  0  0  0  0  0  0  0  0  0  0
   -3.2370   15.1310   -2.7930 C   0  0  0  0  0  0  0  0  0  0  0  0
   -2.4540   14.8570    0.6900 C   0  0  0  0  0  0  0  0  0  0  0  0
   -2.1450   14.8550   -0.7460 C   0  0  0  0  0  0  0  0  0  0  0  0
   -4.0210   15.0460   -3.6930 O   0  0  0  0  0  0  0  0  0  0  0  0
   -1.9340   15.2920   -3.0950 O   0  0  0  0  0  0  0  0  0  0  0  0
   -1.4960   14.6470    1.6120 N   0  0  0  0  0  0  0  0  0  0  0  0
   -0.9170   14.6760   -1.2340 C   0  0  0  0  0  0  0  0  0  0  0  0
   -0.5690   14.6690   -2.6280 N   0  0  0  0  0  0  0  0  0  0  0  0
    0.0250   14.5060   -0.2450 N   0  0  0  0  0  0  0  0  0  0  0  0
   -0.3220   14.4950    1.0980 C   0  0  0  0  0  0  0  0  0  0  0  0
   -0.3840   13.4710   -3.4290 C   0  0  2  0  0  0  0  0  0  0  0  0
   -1.1320   15.6240   -3.6270 C   0  0  0  0  0  0  0  0  0  0  0  0
    0.7100   12.5930   -2.8790 C   0  0  0  0  0  0  0  0  0  0  0  0
   -0.0120   14.0030   -4.8210 C   0  0  0  0  0  0  0  0  0  0  0  0
   -1.0650   15.0410   -5.0080 C   0  0  0  0  0  0  0  0  0  0  0  0
    1.9430   12.3470   -3.7920 C   0  0  0  0  0  0  0  0  0  0  0  0
    0.3480   11.0930   -2.9950 C   0  0  0  0  0  0  0  0  0  0  0  0
    1.4120   10.9380   -4.0900 C   0  0  0  0  0  0  0  0  0  0  0  0
  1  2  1  0
  2  3  2  0
  2  4  1  0
  4  5  1  0
  5  6  1  0
  5  7  2  0
  7  8  1  0
  6  9  2  0
  7 10  1  0
  9 10  1  0
  8 11  2  0
  8 12  1  0
  9 13  1  0
 10 14  2  0
 14 15  1  0
 14 16  1  0
 13 17  2  0
 16 17  1  0
 15 18  1  0
 15 19  1  0
 18 20  1  1
 18 21  1  0
 19 22  1  0
 21 22  1  0
 20 23  1  0
 20 24  1  0
 23 25  1  0
 24 25  1  0
M  END
