mac-x0412-mac-x0375
     RDKit          3D

 25 27  0  0  0  0  0  0  0  0999 V2000
   -7.8130   14.2350   -0.7640 O   0  0  0  0  0  0  0  0  0  0  0  0
   -6.9410   14.7690   -0.0930 C   0  0  0  0  0  0  0  0  0  0  0  0
   -7.0760   14.8830    1.2750 N   0  0  0  0  0  0  0  0  0  0  0  0
   -5.6530   15.3840   -0.7290 C   0  0  1  0  0  0  0  0  0  0  0  0
   -4.4590   15.1330    0.1630 C   0  0  0  0  0  0  0  0  0  0  0  0
   -5.9970   15.0040    1.9720 C   0  0  0  0  0  0  0  0  0  0  0  0
   -5.3920   14.9890   -2.1560 C   0  0  0  0  0  0  0  0  0  0  0  0
   -4.6100   14.9800    1.4610 C   0  0  0  0  0  0  0  0  0  0  0  0
   -3.1440   15.0260   -0.4260 C   0  0  0  0  0  0  0  0  0  0  0  0
   -4.1540   14.7320   -2.6120 C   0  0  0  0  0  0  0  0  0  0  0  0
   -2.9850   14.8140   -1.7440 C   0  0  0  0  0  0  0  0  0  0  0  0
   -1.6180   14.6340   -2.3750 C   0  0  0  0  0  0  0  0  0  0  0  0
   -0.8590   13.3620   -1.9700 C   0  0  0  0  0  0  0  0  0  0  0  0
    0.6360   13.6020   -1.7120 C   0  0  0  0  0  0  0  0  0  0  0  0
    1.4850   12.8180   -2.5590 O   0  0  0  0  0  0  0  0  0  0  0  0
    0.8710   11.9820   -3.4400 C   0  0  0  0  0  0  0  0  0  0  0  0
    0.4730   10.8590   -3.1490 O   0  0  0  0  0  0  0  0  0  0  0  0
    0.7350   12.6010   -4.8270 C   0  0  0  0  0  0  0  0  0  0  0  0
    0.7860   11.6250   -5.8740 O   0  0  0  0  0  0  0  0  0  0  0  0
   -0.3620   10.8690   -5.9640 C   0  0  0  0  0  0  0  0  0  0  0  0
   -0.3570    9.7170   -6.7510 C   0  0  0  0  0  0  0  0  0  0  0  0
   -1.5130   11.2490   -5.2760 C   0  0  0  0  0  0  0  0  0  0  0  0
   -1.5090    8.9360   -6.8520 C   0  0  0  0  0  0  0  0  0  0  0  0
   -2.6650   10.4650   -5.3810 C   0  0  0  0  0  0  0  0  0  0  0  0
   -2.6640    9.3130   -6.1640 C   0  0  0  0  0  0  0  0  0  0  0  0
  1  2  2  0
  2  3  1  0
  2  4  1  0
  4  5  1  0
  3  6  2  0
  4  7  1  6
  5  8  2  0
  6  8  1  0
  5  9  1  0
  7 10  2  0
  9 11  2  0
 10 11  1  0
 11 12  1  0
 12 13  1  0
 13 14  1  0
 14 15  1  0
 15 16  1  0
 16 17  2  0
 16 18  1  0
 18 19  1  0
 19 20  1  0
 20 21  2  0
 20 22  1  0
 21 23  1  0
 22 24  2  0
 23 25  2  0
 24 25  1  0
M  END
