mac-x0179-mac-x0398
     RDKit          3D

 28 30  0  0  0  0  0  0  0  0999 V2000
    1.5270   12.9110   -2.2270 O   0  0  0  0  0  0  0  0  0  0  0  0
    0.9050   12.1800   -3.1710 C   0  0  0  0  0  0  0  0  0  0  0  0
    0.6930   10.9980   -2.9540 O   0  0  0  0  0  0  0  0  0  0  0  0
    0.5260   12.9400   -4.4470 C   0  0  2  0  0  0  0  0  0  0  0  0
   -0.3760   14.1560   -4.1370 C   0  0  0  0  0  0  0  0  0  0  0  0
   -0.0190   12.0210   -5.4470 N   0  0  0  0  0  0  0  0  0  0  0  0
   -1.4730   13.8240   -3.1160 C   0  0  0  0  0  0  0  0  0  0  0  0
    0.7240   11.5140   -6.4770 C   0  0  0  0  0  0  0  0  0  0  0  0
   -1.0960   11.2200   -5.1980 C   0  0  0  0  0  0  0  0  0  0  0  0
    1.8170   11.8570   -6.8510 O   0  0  0  0  0  0  0  0  0  0  0  0
   -1.8870   11.2650   -4.2750 O   0  0  0  0  0  0  0  0  0  0  0  0
   -2.0440   15.0050   -2.5320 O   0  0  0  0  0  0  0  0  0  0  0  0
   -0.0470   10.4200   -7.0640 C   0  0  0  0  0  0  0  0  0  0  0  0
   -1.1650   10.2380   -6.2760 C   0  0  0  0  0  0  0  0  0  0  0  0
   -3.3640   15.2090   -2.7620 C   0  0  0  0  0  0  0  0  0  0  0  0
    0.1950    9.6430   -8.1820 C   0  0  0  0  0  0  0  0  0  0  0  0
   -2.1110    9.2720   -6.5530 C   0  0  0  0  0  0  0  0  0  0  0  0
   -3.8620   15.4260   -3.8510 O   0  0  0  0  0  0  0  0  0  0  0  0
   -0.7510    8.6550   -8.4860 C   0  0  0  0  0  0  0  0  0  0  0  0
   -1.8950    8.4720   -7.6770 C   0  0  0  0  0  0  0  0  0  0  0  0
   -4.1160   15.1170   -1.4840 C   0  0  0  0  0  0  0  0  0  0  0  0
   -5.5080   15.1290   -1.5050 C   0  0  0  0  0  0  0  0  0  0  0  0
   -3.4550   15.0140   -0.2480 C   0  0  0  0  0  0  0  0  0  0  0  0
   -6.1690   15.2310   -2.6950 O   0  0  0  0  0  0  0  0  0  0  0  0
   -6.2410   15.0350   -0.3290 C   0  0  0  0  0  0  0  0  0  0  0  0
   -4.1940   14.9210    0.9360 C   0  0  0  0  0  0  0  0  0  0  0  0
   -5.5930   14.9280    0.9010 C   0  0  0  0  0  0  0  0  0  0  0  0
   -6.3370   14.8290    2.0800 N   0  0  0  0  0  0  0  0  0  0  0  0
  1  2  1  0
  2  3  2  0
  2  4  1  0
  4  5  1  1
  4  6  1  0
  5  7  1  0
  6  8  1  0
  6  9  1  0
  8 10  2  0
  9 11  2  0
  7 12  1  0
  8 13  1  0
  9 14  1  0
 13 14  2  0
 12 15  1  0
 13 16  1  0
 14 17  1  0
 15 18  2  0
 16 19  2  0
 17 20  2  0
 19 20  1  0
 15 21  1  0
 21 22  2  0
 21 23  1  0
 22 24  1  0
 22 25  1  0
 23 26  2  0
 25 27  2  0
 26 27  1  0
 27 28  1  0
M  END
