mac-x0584-mac-x0472
     RDKit          3D

 28 32  0  0  0  0  0  0  0  0999 V2000
   -4.8790   14.6700   -4.3350 O   0  0  0  0  0  0  0  0  0  0  0  0
   -4.0200   14.3020   -3.2580 S   0  0  0  0  0  0  0  0  0  0  0  0
   -2.6070   14.1410   -3.4700 O   0  0  0  0  0  0  0  0  0  0  0  0
   -4.2810   15.4440   -2.0750 N   0  0  0  0  0  0  0  0  0  0  0  0
   -4.5780   12.7520   -2.6160 C   0  0  0  0  0  0  0  0  0  0  0  0
   -3.7540   15.3440   -0.8340 C   0  0  0  0  0  0  0  0  0  0  0  0
   -3.8520   11.6080   -2.9490 C   0  0  0  0  0  0  0  0  0  0  0  0
   -5.7170   12.6770   -1.8150 C   0  0  0  0  0  0  0  0  0  0  0  0
   -2.3990   15.1740   -0.5550 C   0  0  0  0  0  0  0  0  0  0  0  0
   -4.4270   15.3950    0.3130 C   0  0  0  0  0  0  0  0  0  0  0  0
   -4.2730   10.3690   -2.4880 C   0  0  0  0  0  0  0  0  0  0  0  0
   -6.1340   11.4310   -1.3560 C   0  0  0  0  0  0  0  0  0  0  0  0
   -2.4390   15.1100    0.9210 C   0  0  0  0  0  0  0  0  0  0  0  0
   -1.2390   15.0740   -1.2480 C   0  0  0  0  0  0  0  0  0  0  0  0
   -3.6280   15.2590    1.4250 N   0  0  0  0  0  0  0  0  0  0  0  0
   -5.4190   10.2890   -1.6970 C   0  0  0  0  0  0  0  0  0  0  0  0
   -1.1530   15.1230   -2.6680 N   0  0  0  0  0  0  0  0  0  0  0  0
   -0.1410   14.9120   -0.4350 N   0  0  0  0  0  0  0  0  0  0  0  0
   -1.3270   14.9220    1.6360 N   0  0  0  0  0  0  0  0  0  0  0  0
    0.0210   14.7050   -3.4920 C   0  0  1  0  0  0  0  0  0  0  0  0
   -1.8920   16.1270   -3.4670 C   0  0  0  0  0  0  0  0  0  0  0  0
   -0.2650   14.8560    0.9300 C   0  0  0  0  0  0  0  0  0  0  0  0
    0.1260   13.2190   -3.7900 C   0  0  0  0  0  0  0  0  0  0  0  0
   -0.1780   15.4020   -4.8550 C   0  0  0  0  0  0  0  0  0  0  0  0
   -1.6700   15.6740   -4.8950 C   0  0  0  0  0  0  0  0  0  0  0  0
    1.4010   12.4120   -3.4420 C   0  0  0  0  0  0  0  0  0  0  0  0
   -0.6630   12.1840   -2.9550 C   0  0  0  0  0  0  0  0  0  0  0  0
    0.4520   11.1970   -3.2980 C   0  0  0  0  0  0  0  0  0  0  0  0
  1  2  2  0
  2  3  2  0
  2  4  1  0
  2  5  1  0
  4  6  1  0
  5  7  2  0
  5  8  1  0
  6  9  1  0
  6 10  2  0
  7 11  1  0
  8 12  2  0
  9 13  1  0
  9 14  2  0
 10 15  1  0
 13 15  2  0
 11 16  2  0
 12 16  1  0
 14 17  1  0
 14 18  1  0
 13 19  1  0
 17 20  1  0
 17 21  1  0
 18 22  1  0
 19 22  2  0
 20 23  1  6
 20 24  1  0
 21 25  1  0
 24 25  1  0
 23 26  1  0
 23 27  1  0
 26 28  1  0
 27 28  1  0
M  END
