mac-x0379-mac-x0346
     RDKit          3D

 20 21  0  0  0  0  0  0  0  0999 V2000
   -7.7690   14.6830    1.1920 O   0  0  0  0  0  0  0  0  0  0  0  0
   -8.4960   14.3450   -0.0220 N   0  0  0  0  0  0  0  0  0  0  0  0
   -7.8840   15.1160   -1.1020 C   0  0  0  0  0  0  0  0  0  0  0  0
   -6.6170   14.5800   -1.4350 O   0  0  0  0  0  0  0  0  0  0  0  0
   -5.9690   15.4060   -2.3890 C   0  0  0  0  0  0  0  0  0  0  0  0
   -4.6740   15.8810   -1.9610 O   0  0  0  0  0  0  0  0  0  0  0  0
   -4.3110   15.5670   -0.6860 C   0  0  0  0  0  0  0  0  0  0  0  0
   -3.5100   14.5860   -0.5310 C   0  0  0  0  0  0  0  0  0  0  0  0
   -4.6780   16.1590    0.3760 C   0  0  0  0  0  0  0  0  0  0  0  0
   -3.1650   14.2080   -1.7630 C   0  0  0  0  0  0  0  0  0  0  0  0
   -4.2850   15.7740    1.6580 C   0  0  0  0  0  0  0  0  0  0  0  0
   -3.0550   14.0900    0.6690 C   0  0  0  0  0  0  0  0  0  0  0  0
   -3.8200   13.6990   -2.7560 N   0  0  0  0  0  0  0  0  0  0  0  0
   -1.5560   14.6420   -1.8760 S   0  0  0  0  0  0  0  0  0  0  0  0
   -3.4580   14.7020    1.8070 C   0  0  0  0  0  0  0  0  0  0  0  0
   -2.9080   13.6810   -3.7810 C   0  0  0  0  0  0  0  0  0  0  0  0
   -1.6510   14.1710   -3.4550 C   0  0  0  0  0  0  0  0  0  0  0  0
   -0.4660   14.3530   -4.1620 C   0  0  0  0  0  0  0  0  0  0  0  0
   -0.2320   14.1470   -5.3260 O   0  0  0  0  0  0  0  0  0  0  0  0
    0.4910   14.8500   -3.3320 O   0  0  0  0  0  0  0  0  0  0  0  0
  1  2  1  0
  2  3  1  0
  3  4  1  0
  4  5  1  0
  5  6  1  0
  6  7  1  0
  7  8  2  0
  7  9  1  0
  8 10  1  0
  9 11  2  0
  8 12  1  0
 10 13  2  0
 10 14  1  0
 11 15  1  0
 12 15  2  0
 13 16  1  0
 14 17  1  0
 16 17  2  0
 17 18  1  0
 18 19  2  0
 18 20  1  0
M  END
