mac-x0522-mac-x0584
     RDKit          3D

 35 40  0  0  0  0  0  0  0  0999 V2000
    1.4960    9.3170  -11.1460 O   0  0  0  0  0  0  0  0  0  0  0  0
    2.5800    8.8390  -11.4450 C   0  0  0  0  0  0  0  0  0  0  0  0
    3.1870    7.7590  -10.8170 N   0  0  0  0  0  0  0  0  0  0  0  0
    3.2670    9.5190  -12.5910 C   0  0  0  0  0  0  0  0  0  0  0  0
    2.6230    7.2910   -9.6410 C   0  0  0  0  0  0  0  0  0  0  0  0
    4.3820    8.9420  -13.2130 C   0  0  0  0  0  0  0  0  0  0  0  0
    2.7840   10.7570  -13.0510 C   0  0  0  0  0  0  0  0  0  0  0  0
    2.7570    6.1850   -8.9410 N   0  0  0  0  0  0  0  0  0  0  0  0
    1.5270    8.4250   -9.0030 S   0  0  0  0  0  0  0  0  0  0  0  0
    4.9960    9.6040  -14.2820 C   0  0  0  0  0  0  0  0  0  0  0  0
    3.4020   11.4100  -14.1140 C   0  0  0  0  0  0  0  0  0  0  0  0
    1.1680    7.4270   -7.6750 C   0  0  0  0  0  0  0  0  0  0  0  0
    1.9240    6.2510   -7.8110 C   0  0  0  0  0  0  0  0  0  0  0  0
    4.5090   10.8320  -14.7320 C   0  0  0  0  0  0  0  0  0  0  0  0
    0.1620    7.9500   -6.6440 C   0  0  0  0  0  0  0  0  0  0  0  0
    0.3320    9.4600   -6.2160 C   0  0  0  0  0  0  0  0  0  0  0  0
    0.2910    9.7160   -4.6790 C   0  0  0  0  0  0  0  0  0  0  0  0
    0.1450   11.1540   -4.0820 C   0  0  1  0  0  0  0  0  0  0  0  0
    1.3290   12.1280   -3.7880 C   0  0  0  0  0  0  0  0  0  0  0  0
   -0.5460   12.2900   -4.8730 C   0  0  0  0  0  0  0  0  0  0  0  0
    0.5020   13.3200   -4.3790 C   0  0  1  0  0  0  0  0  0  0  0  0
    0.0370   14.5570   -3.5450 C   0  0  1  0  0  0  0  0  0  0  0  0
   -0.3200   15.6510   -4.5620 C   0  0  0  0  0  0  0  0  0  0  0  0
   -1.2460   14.4550   -2.7720 N   0  0  0  0  0  0  0  0  0  0  0  0
   -2.3610   14.8410   -3.6630 C   0  0  0  0  0  0  0  0  0  0  0  0
   -1.7380   15.3020   -4.9670 C   0  0  0  0  0  0  0  0  0  0  0  0
   -1.3770   14.6270   -1.3750 C   0  0  0  0  0  0  0  0  0  0  0  0
   -0.2900   14.5530   -0.5210 N   0  0  0  0  0  0  0  0  0  0  0  0
   -2.5470   14.8850   -0.7250 C   0  0  0  0  0  0  0  0  0  0  0  0
   -0.4000   14.6610    0.8400 C   0  0  0  0  0  0  0  0  0  0  0  0
   -2.5680   15.0320    0.7620 C   0  0  0  0  0  0  0  0  0  0  0  0
   -3.9250   15.0900   -1.0560 C   0  0  0  0  0  0  0  0  0  0  0  0
   -1.4620   14.8810    1.5250 N   0  0  0  0  0  0  0  0  0  0  0  0
   -3.7480   15.3200    1.2280 N   0  0  0  0  0  0  0  0  0  0  0  0
   -4.5490   15.3440    0.1030 C   0  0  0  0  0  0  0  0  0  0  0  0
  1  2  2  0
  2  3  1  0
  2  4  1  0
  3  5  1  0
  4  6  2  0
  4  7  1  0
  5  8  2  0
  5  9  1  0
  6 10  1  0
  7 11  2  0
  9 12  1  0
  8 13  1  0
 12 13  2  0
 10 14  2  0
 11 14  1  0
 12 15  1  0
 15 16  1  0
 16 17  1  0
 18 17  1  6
 18 19  1  0
 18 20  1  0
 21 19  1  1
 20 21  1  0
 21 22  1  0
 22 23  1  6
 22 24  1  0
 24 25  1  0
 23 26  1  0
 25 26  1  0
 24 27  1  0
 27 28  1  0
 27 29  2  0
 28 30  1  0
 29 31  1  0
 29 32  1  0
 30 33  2  0
 31 33  1  0
 31 34  2  0
 32 35  2  0
 34 35  1  0
M  END
