mac-x0224-mac-x0328
     RDKit          3D

 20 22  0  0  0  0  0  0  0  0999 V2000
   -5.2580   15.0250    1.4670 C   0  0  0  0  0  0  0  0  0  0  0  0
   -3.5170   15.4830    1.5740 S   0  0  0  0  0  0  0  0  0  0  0  0
   -3.0640   15.3040   -0.1150 C   0  0  0  0  0  0  0  0  0  0  0  0
   -1.8810   14.6460   -0.4430 C   0  0  0  0  0  0  0  0  0  0  0  0
   -3.9130   15.8230   -1.1130 C   0  0  0  0  0  0  0  0  0  0  0  0
   -1.6100   14.5200   -1.7770 C   0  0  0  0  0  0  0  0  0  0  0  0
   -3.6020   15.6910   -2.4690 C   0  0  0  0  0  0  0  0  0  0  0  0
   -0.5500   13.8710   -2.5160 C   0  0  0  0  0  0  0  0  0  0  0  0
   -2.4570   15.0360   -2.7690 C   0  0  0  0  0  0  0  0  0  0  0  0
   -1.9740   14.7480   -4.0180 O   0  0  0  0  0  0  0  0  0  0  0  0
    0.1540   12.8770   -1.8030 O   0  0  0  0  0  0  0  0  0  0  0  0
    0.3350   14.8150   -3.0850 O   0  0  0  0  0  0  0  0  0  0  0  0
   -1.8560   13.5260   -3.3180 C   0  0  2  0  0  0  0  0  0  0  0  0
   -3.2030   13.7380   -2.5220 C   0  0  0  0  0  0  0  0  0  0  0  0
   -3.4750   13.3550   -1.1790 C   0  0  0  0  0  0  0  0  0  0  0  0
   -4.2650   14.4110   -3.2040 C   0  0  0  0  0  0  0  0  0  0  0  0
   -4.7200   13.6400   -0.5670 C   0  0  0  0  0  0  0  0  0  0  0  0
   -5.5010   14.6920   -2.5860 C   0  0  0  0  0  0  0  0  0  0  0  0
   -5.7230   14.3120   -1.2730 C   0  0  0  0  0  0  0  0  0  0  0  0
   -6.9400   14.6220   -0.7220 O   0  0  0  0  0  0  0  0  0  0  0  0
  1  2  1  0
  2  3  1  0
  3  4  2  0
  3  5  1  0
  4  6  1  0
  5  7  2  0
  6  8  1  0
  6  9  2  0
  7  9  1  0
  9 10  1  0
  8 11  1  0
  8 12  1  0
  8 13  1  0
 10 13  1  0
 13 14  1  1
 14 15  2  0
 14 16  1  0
 15 17  1  0
 16 18  2  0
 17 19  2  0
 18 19  1  0
 19 20  1  0
M  END
