mac-x0572-diamond-x1015_0_A
     RDKit          3D

 30 33  0  0  0  0  0  0  0  0999 V2000
   -7.9220   14.6460    3.3940 C   0  0  0  0  0  0  0  0  0  0  0  0
   -7.2100   14.7330    2.0650 C   0  0  0  0  0  0  0  0  0  0  0  0
   -5.8680   15.0540    2.1680 N   0  0  0  0  0  0  0  0  0  0  0  0
   -7.8550   14.5210    0.9030 C   0  0  0  0  0  0  0  0  0  0  0  0
   -9.1970   14.2110    0.7900 O   0  0  0  0  0  0  0  0  0  0  0  0
   -7.0550   14.6300   -0.3420 C   0  0  0  0  0  0  0  0  0  0  0  0
   -5.0820   14.9120    1.1480 C   0  0  0  0  0  0  0  0  0  0  0  0
   -7.6200   14.8850   -1.4070 O   0  0  0  0  0  0  0  0  0  0  0  0
   -5.5810   14.3910   -0.1790 C   0  0  2  0  0  0  0  0  0  0  0  0
   -3.6450   15.2640    1.2710 C   0  0  0  0  0  0  0  0  0  0  0  0
   -2.9310   15.4650    0.1490 C   0  0  0  0  0  0  0  0  0  0  0  0
   -4.7520   14.8580   -1.3320 C   0  0  0  0  0  0  0  0  0  0  0  0
   -3.5230   15.3450   -1.1840 C   0  0  0  0  0  0  0  0  0  0  0  0
   -2.7440   15.7560   -2.3990 C   0  0  0  0  0  0  0  0  0  0  0  0
   -1.4560   14.9820   -2.5390 C   0  0  0  0  0  0  0  0  0  0  0  0
   -1.2260   14.4080   -3.9390 C   0  0  0  0  0  0  0  0  0  0  0  0
    0.0850   13.6250   -3.9820 C   0  0  2  0  0  0  0  0  0  0  0  0
   -0.1120   12.1780   -3.9330 N   0  0  0  0  0  0  0  0  0  0  0  0
    0.7750   13.8310   -2.6330 C   0  0  0  0  0  0  0  0  0  0  0  0
    1.0860   14.9000   -2.1320 O   0  0  0  0  0  0  0  0  0  0  0  0
    0.3350   11.6490   -2.7150 C   0  0  0  0  0  0  0  0  0  0  0  0
    0.9940   12.6320   -2.0550 N   0  0  0  0  0  0  0  0  0  0  0  0
   -0.5050   11.4050   -5.0520 C   0  0  0  0  0  0  0  0  0  0  0  0
    0.2000   10.5130   -2.2630 O   0  0  0  0  0  0  0  0  0  0  0  0
    0.0580   11.6210   -6.3170 C   0  0  0  0  0  0  0  0  0  0  0  0
   -1.4710   10.3960   -4.9220 C   0  0  0  0  0  0  0  0  0  0  0  0
   -0.3310   10.8500   -7.4200 C   0  0  0  0  0  0  0  0  0  0  0  0
   -1.8650    9.6230   -6.0190 C   0  0  0  0  0  0  0  0  0  0  0  0
   -1.2930    9.8550   -7.2610 C   0  0  0  0  0  0  0  0  0  0  0  0
   -1.7760    8.9040   -8.6080 Cl  0  0  0  0  0  0  0  0  0  0  0  0
  1  2  1  0
  2  3  1  0
  2  4  2  0
  4  5  1  0
  4  6  1  0
  3  7  2  0
  6  8  2  0
  6  9  1  0
  7  9  1  0
  7 10  1  0
 10 11  2  0
  9 12  1  6
 11 13  1  0
 12 13  2  0
 13 14  1  0
 14 15  1  0
 15 16  1  0
 17 16  1  1
 17 18  1  0
 17 19  1  0
 19 20  2  0
 18 21  1  0
 19 22  1  0
 21 22  1  0
 18 23  1  0
 21 24  2  0
 23 25  2  0
 23 26  1  0
 25 27  1  0
 26 28  2  0
 27 29  2  0
 28 29  1  0
 29 30  1  0
M  END
