mac-x0588-diamond-x0895_0_A
     RDKit          3D

 17 19  0  0  0  0  0  0  0  0999 V2000
   -4.6800   14.9560    1.0280 N   0  0  0  0  0  0  0  0  0  0  0  0
   -3.5740   15.4290    0.1950 C   0  0  1  0  0  0  0  0  0  0  0  0
   -2.1220   14.9560    0.5910 C   0  0  1  0  0  0  0  0  0  0  0  0
   -4.0290   15.0040   -1.1310 N   0  0  0  0  0  0  0  0  0  0  0  0
   -2.1160   14.1220    1.7650 O   0  0  0  0  0  0  0  0  0  0  0  0
   -3.1010   15.2270   -2.2340 C   0  0  0  0  0  0  0  0  0  0  0  0
   -1.5120   14.3170   -0.6850 C   0  0  1  0  0  0  0  0  0  0  0  0
   -1.1010   15.8920    0.8950 N   0  0  0  0  0  0  0  0  0  0  0  0
   -1.6990   15.2040   -1.8220 N   0  0  0  0  0  0  0  0  0  0  0  0
   -0.0950   14.1680   -0.3380 N   0  0  0  0  0  0  0  0  0  0  0  0
    0.0510   15.0150    0.8470 C   0  0  0  0  0  0  0  0  0  0  0  0
   -0.7330   14.9940   -2.9230 C   0  0  0  0  0  0  0  0  0  0  0  0
   -0.6880   15.8670   -4.2140 C   0  0  1  0  0  0  0  0  0  0  0  0
   -1.4330   17.0930   -4.0660 O   0  0  0  0  0  0  0  0  0  0  0  0
    0.7020   16.2740   -4.6960 C   0  0  0  0  0  0  0  0  0  0  0  0
    0.5280   17.6820   -5.2360 C   0  0  0  0  0  0  0  0  0  0  0  0
   -0.9550   17.9540   -5.1000 C   0  0  0  0  0  0  0  0  0  0  0  0
  2  1  1  1
  2  3  1  0
  2  4  1  0
  3  5  1  1
  4  6  1  0
  3  7  1  0
  3  8  1  0
  6  9  1  0
  7  9  1  0
  7 10  1  1
  8 11  1  0
 10 11  1  0
  9 12  1  0
 13 12  1  1
 13 14  1  0
 13 15  1  0
 15 16  1  0
 14 17  1  0
 16 17  1  0
M  END
