mac-x0584-mac-x0572
     RDKit          3D

 26 30  0  0  0  0  0  0  0  0999 V2000
   -7.4060   13.4770    2.8150 C   0  0  0  0  0  0  0  0  0  0  0  0
   -6.8150   14.2830    1.6510 C   0  0  1  0  0  0  0  0  0  0  0  0
   -5.6500   13.6250    1.0170 N   0  0  0  0  0  0  0  0  0  0  0  0
   -7.8030   14.5770    0.5450 C   0  0  1  0  0  0  0  0  0  0  0  0
   -8.9480   15.3290    0.9070 O   0  0  0  0  0  0  0  0  0  0  0  0
   -4.6940   14.5430    0.3820 C   0  0  1  0  0  0  0  0  0  0  0  0
   -6.9800   15.1770   -0.5820 C   0  0  0  0  0  0  0  0  0  0  0  0
   -7.4950   15.2640   -1.6920 O   0  0  0  0  0  0  0  0  0  0  0  0
   -3.7120   14.9040    1.4010 N   0  0  0  0  0  0  0  0  0  0  0  0
   -3.8580   14.1830   -0.8870 C   0  0  0  0  0  0  0  0  0  0  0  0
   -5.5200   15.6030   -0.3410 C   0  0  0  0  0  0  0  0  0  0  0  0
   -2.4320   14.8970    0.8040 C   0  0  0  0  0  0  0  0  0  0  0  0
   -2.4710   14.5630   -0.5350 C   0  0  0  0  0  0  0  0  0  0  0  0
   -1.3400   15.2090    1.4670 N   0  0  0  0  0  0  0  0  0  0  0  0
   -1.3210   14.6310   -1.2640 C   0  0  0  0  0  0  0  0  0  0  0  0
   -1.2480   14.4080   -2.6130 N   0  0  0  0  0  0  0  0  0  0  0  0
   -0.1800   14.9500   -0.6220 N   0  0  0  0  0  0  0  0  0  0  0  0
   -0.2380   15.2080    0.7020 C   0  0  0  0  0  0  0  0  0  0  0  0
   -0.0860   14.5060   -3.4780 C   0  0  1  0  0  0  0  0  0  0  0  0
   -2.4520   14.8230   -3.3660 C   0  0  0  0  0  0  0  0  0  0  0  0
    0.1040   13.1160   -4.0240 C   0  0  0  0  0  0  0  0  0  0  0  0
   -0.4860   15.5180   -4.5570 C   0  0  0  0  0  0  0  0  0  0  0  0
   -1.9740   15.2740   -4.7470 C   0  0  0  0  0  0  0  0  0  0  0  0
    1.2620   12.2650   -3.4610 C   0  0  0  0  0  0  0  0  0  0  0  0
   -0.8710   11.9910   -3.5880 C   0  0  0  0  0  0  0  0  0  0  0  0
    0.3180   11.0440   -3.6190 C   0  0  0  0  0  0  0  0  0  0  0  0
  2  1  1  1
  2  3  1  0
  2  4  1  0
  4  5  1  1
  6  3  1  0
  4  7  1  0
  7  8  2  0
  6  9  1  0
  6 10  1  6
  6 11  1  0
  7 11  1  0
  9 12  1  0
 10 13  1  0
 12 13  2  0
 12 14  1  0
 13 15  1  0
 15 16  1  0
 15 17  2  0
 14 18  2  0
 17 18  1  0
 16 19  1  0
 16 20  1  0
 19 21  1  6
 19 22  1  0
 20 23  1  0
 22 23  1  0
 21 24  1  0
 21 25  1  0
 24 26  1  0
 25 26  1  0
M  END
