mac-x0572-mac-x0373
     RDKit          3D

 23 25  0  0  0  0  0  0  0  0999 V2000
   -7.7990   14.7130    3.1880 C   0  0  0  0  0  0  0  0  0  0  0  0
   -7.0630   14.7470    1.8680 C   0  0  0  0  0  0  0  0  0  0  0  0
   -5.7060   14.9890    2.0210 N   0  0  0  0  0  0  0  0  0  0  0  0
   -7.6660   14.5710    0.6720 C   0  0  0  0  0  0  0  0  0  0  0  0
   -9.0170   14.3380    0.4790 O   0  0  0  0  0  0  0  0  0  0  0  0
   -6.7790   14.6300   -0.5400 C   0  0  0  0  0  0  0  0  0  0  0  0
   -4.8810   14.7430    1.0450 C   0  0  0  0  0  0  0  0  0  0  0  0
   -7.2110   14.9800   -1.6320 O   0  0  0  0  0  0  0  0  0  0  0  0
   -5.3470   14.1910   -0.2690 C   0  0  2  0  0  0  0  0  0  0  0  0
   -3.4310   14.9760    1.2370 C   0  0  0  0  0  0  0  0  0  0  0  0
   -2.5750   14.8660    0.1980 C   0  0  0  0  0  0  0  0  0  0  0  0
   -4.3010   14.2320   -1.3750 C   0  0  0  0  0  0  0  0  0  0  0  0
   -2.9750   14.5180   -1.1750 C   0  0  0  0  0  0  0  0  0  0  0  0
   -1.8530   14.4670   -2.2870 C   0  0  1  0  0  0  0  0  0  0  0  0
   -0.3750   14.4870   -1.8030 C   0  0  0  0  0  0  0  0  0  0  0  0
   -2.0020   13.2610   -3.2370 C   0  0  0  0  0  0  0  0  0  0  0  0
    0.0170   13.3650   -1.1480 O   0  0  0  0  0  0  0  0  0  0  0  0
    0.4590   15.3620   -1.9560 O   0  0  0  0  0  0  0  0  0  0  0  0
   -1.2900   13.1800   -4.4580 C   0  0  0  0  0  0  0  0  0  0  0  0
   -2.8540   12.2000   -2.8970 C   0  0  0  0  0  0  0  0  0  0  0  0
   -1.4350   12.0710   -5.3020 C   0  0  0  0  0  0  0  0  0  0  0  0
   -2.9970   11.0960   -3.7440 C   0  0  0  0  0  0  0  0  0  0  0  0
   -2.2890   11.0310   -4.9430 C   0  0  0  0  0  0  0  0  0  0  0  0
  1  2  1  0
  2  3  1  0
  2  4  2  0
  4  5  1  0
  4  6  1  0
  3  7  2  0
  6  8  2  0
  6  9  1  0
  7  9  1  0
  7 10  1  0
 10 11  2  0
  9 12  1  6
 11 13  1  0
 12 13  2  0
 13 14  1  0
 14 15  1  1
 14 16  1  0
 15 17  1  0
 15 18  2  0
 16 19  2  0
 16 20  1  0
 19 21  1  0
 20 22  2  0
 21 23  2  0
 22 23  1  0
M  END
