mac-x0441-diamond-x0253_0_A
     RDKit          3D

 27 29  0  0  0  0  0  0  0  0999 V2000
   -0.8250   10.8480   -3.1570 O   0  0  0  0  0  0  0  0  0  0  0  0
   -0.6090   12.1370   -3.4960 C   0  0  0  0  0  0  0  0  0  0  0  0
   -0.5950   13.0470   -2.6390 O   0  0  0  0  0  0  0  0  0  0  0  0
   -0.3380   12.5920   -4.9300 C   0  0  1  0  0  0  0  0  0  0  0  0
    0.8250   12.1330   -5.3660 N   0  0  0  0  0  0  0  0  0  0  0  0
   -0.9760   11.8610   -5.9990 N   0  0  0  0  0  0  0  0  0  0  0  0
    1.6920   11.4150   -6.0420 C   0  0  0  0  0  0  0  0  0  0  0  0
   -0.6060   12.0280   -7.2510 N   0  0  0  0  0  0  0  0  0  0  0  0
   -1.9280   10.9300   -5.9960 C   0  0  0  0  0  0  0  0  0  0  0  0
    2.9530   11.4740   -6.0430 O   0  0  0  0  0  0  0  0  0  0  0  0
   -1.2380   11.2540   -8.1040 C   0  0  0  0  0  0  0  0  0  0  0  0
   -2.1110   10.5240   -7.3260 C   0  0  0  0  0  0  0  0  0  0  0  0
   -2.7140   10.3300   -4.8620 C   0  0  0  0  0  0  0  0  0  0  0  0
    1.1080   10.3160   -6.9380 C   0  0  0  0  0  0  0  0  0  0  0  0
   -1.0850   11.1400   -9.5860 C   0  0  0  0  0  0  0  0  0  0  0  0
   -3.0840    9.4840   -7.7230 C   0  0  0  0  0  0  0  0  0  0  0  0
   -3.8500    9.5330   -5.4430 C   0  0  0  0  0  0  0  0  0  0  0  0
    0.5040    9.2200   -6.3700 C   0  0  0  0  0  0  0  0  0  0  0  0
    1.1850   10.4320   -8.2950 C   0  0  0  0  0  0  0  0  0  0  0  0
   -1.1540    9.7800   -9.9350 F   0  0  0  0  0  0  0  0  0  0  0  0
   -2.1190   11.7370  -10.2580 F   0  0  0  0  0  0  0  0  0  0  0  0
    0.1120   11.5990  -10.0510 F   0  0  0  0  0  0  0  0  0  0  0  0
   -3.2630    8.6000   -6.4880 C   0  0  0  0  0  0  0  0  0  0  0  0
   -0.0010    8.2440   -7.1830 C   0  0  0  0  0  0  0  0  0  0  0  0
    0.6800    9.4460   -9.1080 C   0  0  0  0  0  0  0  0  0  0  0  0
   -0.6550    7.0420   -6.5850 C   0  0  0  0  0  0  0  0  0  0  0  0
    0.0850    8.3460   -8.5560 C   0  0  0  0  0  0  0  0  0  0  0  0
  1  2  1  0
  2  3  2  0
  2  4  1  0
  4  5  1  6
  4  6  1  0
  5  7  1  0
  6  8  1  0
  6  9  1  0
  7 10  2  0
  8 11  2  0
  9 12  2  0
 11 12  1  0
  9 13  1  0
  7 14  1  0
 11 15  1  0
 12 16  1  0
 13 17  1  0
 14 18  2  0
 14 19  1  0
 15 20  1  0
 15 21  1  0
 15 22  1  0
 16 23  1  0
 17 23  1  0
 18 24  1  0
 19 25  2  0
 24 26  1  0
 24 27  2  0
 25 27  1  0
M  END
