mac-x0380-mac-x0228
     RDKit          3D

 15 16  0  0  0  0  0  0  0  0999 V2000
   -1.3890   15.0610   -2.6460 O   0  0  0  0  0  0  0  0  0  0  0  0
   -2.7370   15.0570   -2.8580 C   0  0  0  0  0  0  0  0  0  0  0  0
   -3.2230   15.0750   -3.9790 O   0  0  0  0  0  0  0  0  0  0  0  0
   -1.0690   14.0580   -1.6270 O   0  0  0  0  0  0  0  0  0  0  0  0
   -3.5560   15.0400   -1.6070 C   0  0  0  0  0  0  0  0  0  0  0  0
   -4.9500   15.0750   -1.6760 C   0  0  0  0  0  0  0  0  0  0  0  0
   -2.9400   14.9850   -0.3400 C   0  0  0  0  0  0  0  0  0  0  0  0
   -5.7250   15.0500   -0.5150 C   0  0  0  0  0  0  0  0  0  0  0  0
   -3.7140   14.9620    0.8290 C   0  0  0  0  0  0  0  0  0  0  0  0
   -5.1120   14.9910    0.7400 C   0  0  0  0  0  0  0  0  0  0  0  0
   -7.4930   15.0830   -0.6860 S   0  0  0  0  0  0  0  0  0  0  0  0
   -5.8600   14.9550    1.9320 N   0  0  0  0  0  0  0  0  0  0  0  0
   -7.8740   14.1060    0.7780 C   0  0  0  0  0  0  0  0  0  0  0  0
   -7.1910   14.6340    2.0120 C   0  0  0  0  0  0  0  0  0  0  0  0
   -7.8120   14.7870    3.0690 O   0  0  0  0  0  0  0  0  0  0  0  0
  1  2  1  0
  2  3  2  0
  1  4  1  0
  2  5  1  0
  5  6  2  0
  5  7  1  0
  6  8  1  0
  7  9  2  0
  8 10  2  0
  9 10  1  0
  8 11  1  0
 10 12  1  0
 11 13  1  0
 12 14  1  0
 13 14  1  0
 14 15  2  0
M  END
