mac-x0301-diamond-x0805_0_A
     RDKit          3D

 29 32  0  0  0  0  0  0  0  0999 V2000
    1.2450   16.2110   -3.4050 O   0  0  0  0  0  0  0  0  0  0  0  0
    0.0540   16.8080   -3.2190 C   0  0  0  0  0  0  0  0  0  0  0  0
   -0.2650   17.8170   -3.7990 O   0  0  0  0  0  0  0  0  0  0  0  0
   -0.8620   16.0840   -2.3380 C   0  0  0  0  0  0  0  0  0  0  0  0
   -0.6450   15.5410   -1.0560 C   0  0  0  0  0  0  0  0  0  0  0  0
   -2.1000   15.9320   -2.9320 C   0  0  0  0  0  0  0  0  0  0  0  0
   -1.6210   14.8250   -0.4330 C   0  0  0  0  0  0  0  0  0  0  0  0
   -3.0580   15.2070   -2.2980 C   0  0  0  0  0  0  0  0  0  0  0  0
    0.4570   15.5710   -0.2760 O   0  0  0  0  0  0  0  0  0  0  0  0
   -2.7870   14.6410   -1.0850 C   0  0  0  0  0  0  0  0  0  0  0  0
   -1.2760   14.3310    0.7860 O   0  0  0  0  0  0  0  0  0  0  0  0
    0.1140   14.5690    0.7060 C   0  0  0  0  0  0  0  0  0  0  0  0
   -4.4100   14.9830   -2.9150 C   0  0  0  0  0  0  0  0  0  0  0  0
   -3.8200   13.8220   -0.7260 C   0  0  0  0  0  0  0  0  0  0  0  0
   -5.4750   15.4120   -1.8990 C   0  0  0  0  0  0  0  0  0  0  0  0
   -4.5590   12.6340   -0.9800 C   0  0  0  0  0  0  0  0  0  0  0  0
   -2.8190   13.7080   -1.8080 C   0  0  0  0  0  0  0  0  0  0  0  0
   -4.3400   11.6760   -2.0000 C   0  0  0  0  0  0  0  0  0  0  0  0
   -2.4860   12.8440   -2.8550 C   0  0  0  0  0  0  0  0  0  0  0  0
   -3.3170   11.7690   -2.9360 C   0  0  0  0  0  0  0  0  0  0  0  0
   -1.2740   13.0460   -3.8770 C   0  0  2  0  0  0  0  0  0  0  0  0
    0.1140   12.7920   -3.2720 C   0  0  1  0  0  0  0  0  0  0  0  0
   -1.0600   14.3990   -4.6060 C   0  0  0  0  0  0  0  0  0  0  0  0
    0.1250   11.6970   -2.2820 C   0  0  0  0  0  0  0  0  0  0  0  0
    1.2130   12.6920   -4.3020 C   0  0  0  0  0  0  0  0  0  0  0  0
    0.3000   14.5700   -5.3520 C   0  0  0  0  0  0  0  0  0  0  0  0
   -0.2170   10.4620   -2.6970 O   0  0  0  0  0  0  0  0  0  0  0  0
    0.4340   11.9810   -1.1510 O   0  0  0  0  0  0  0  0  0  0  0  0
    1.4570   14.0300   -4.6950 O   0  0  0  0  0  0  0  0  0  0  0  0
  1  2  1  0
  2  3  2  0
  2  4  1  0
  4  5  2  0
  4  6  1  0
  5  7  1  0
  6  8  2  0
  5  9  1  0
  7 10  2  0
  8 10  1  0
  7 11  1  0
  9 12  1  0
 11 12  1  0
  8 13  1  0
 10 14  1  0
 13 15  1  0
 14 16  2  0
 14 17  1  0
 16 18  1  0
 17 19  2  0
 18 20  2  0
 19 20  1  0
 21 19  1  1
 21 22  1  0
 21 23  1  0
 22 24  1  6
 22 25  1  0
 23 26  1  0
 24 27  1  0
 24 28  2  0
 25 29  1  0
 26 29  1  0
M  END
