mac-x0411-diamond-x0766_0_A
     RDKit          3D

 23 25  0  0  0  0  0  0  0  0999 V2000
    0.8560    9.0080   -7.6180 Cl  0  0  0  0  0  0  0  0  0  0  0  0
   -0.5580    9.5250   -6.7810 C   0  0  0  0  0  0  0  0  0  0  0  0
   -0.6100   10.7320   -6.0590 C   0  0  0  0  0  0  0  0  0  0  0  0
   -1.6760    8.6910   -6.8480 C   0  0  0  0  0  0  0  0  0  0  0  0
    0.5060   11.5440   -5.9960 O   0  0  0  0  0  0  0  0  0  0  0  0
   -1.8190   11.0790   -5.4170 C   0  0  0  0  0  0  0  0  0  0  0  0
   -2.8570    9.0430   -6.2070 C   0  0  0  0  0  0  0  0  0  0  0  0
   -2.0460   12.5240   -4.5110 Cl  0  0  0  0  0  0  0  0  0  0  0  0
    1.3390   11.2520   -4.8410 C   0  0  0  0  0  0  0  0  0  0  0  0
   -2.9260   10.2340   -5.4960 C   0  0  0  0  0  0  0  0  0  0  0  0
    0.8220   12.0820   -3.6390 C   0  0  0  0  0  0  0  0  0  0  0  0
    1.9000   12.4180   -2.7940 O   0  0  0  0  0  0  0  0  0  0  0  0
   -0.0610   11.2660   -2.8920 O   0  0  0  0  0  0  0  0  0  0  0  0
    0.1640   13.3130   -4.2950 C   0  0  2  0  0  0  0  0  0  0  0  0
    1.1590   13.9690   -5.2370 C   0  0  0  0  0  0  0  0  0  0  0  0
   -0.4440   14.5740   -3.6120 C   0  0  2  0  0  0  0  0  0  0  0  0
    1.7370   15.1360   -4.4380 C   0  0  0  0  0  0  0  0  0  0  0  0
    0.8190   15.3490   -3.2500 C   0  0  0  0  0  0  0  0  0  0  0  0
   -1.4510   14.5740   -2.4790 C   0  0  0  0  0  0  0  0  0  0  0  0
   -2.8190   14.6650   -2.6910 C   0  0  0  0  0  0  0  0  0  0  0  0
   -1.1730   14.5050   -1.0730 C   0  0  0  0  0  0  0  0  0  0  0  0
   -2.3140   14.5480   -0.2980 C   0  0  0  0  0  0  0  0  0  0  0  0
   -3.7280   14.6720   -1.2440 S   0  0  0  0  0  0  0  0  0  0  0  0
  1  2  1  0
  2  3  2  0
  2  4  1  0
  3  5  1  0
  3  6  1  0
  4  7  2  0
  6  8  1  0
  5  9  1  0
  6 10  2  0
  7 10  1  0
  9 11  1  0
 11 12  1  0
 11 13  1  0
 14 11  1  1
 14 15  1  0
 14 16  1  0
 15 17  1  0
 16 18  1  0
 17 18  1  0
 16 19  1  1
 19 20  2  0
 19 21  1  0
 21 22  2  0
 20 23  1  0
 22 23  1  0
M  END
