mac-x0587-mac-x0357
     RDKit          3D

 23 24  0  0  0  0  0  0  0  0999 V2000
   -0.4400   16.8560   -4.6120 C   0  0  0  0  0  0  0  0  0  0  0  0
   -0.7020   15.5740   -3.8450 C   0  0  2  0  0  0  0  0  0  0  0  0
    0.2010   14.2100   -4.5870 S   0  0  0  0  0  0  0  0  0  0  0  0
   -2.1610   15.2180   -3.5080 C   0  0  0  0  0  0  0  0  0  0  0  0
    0.8640   13.5690   -3.0030 C   0  0  0  0  0  0  0  0  0  0  0  0
   -3.0060   15.2560   -4.4150 O   0  0  0  0  0  0  0  0  0  0  0  0
   -2.5600   14.8730   -2.2100 N   0  0  0  0  0  0  0  0  0  0  0  0
    0.2810   12.2030   -2.7800 C   0  0  0  0  0  0  0  0  0  0  0  0
   -3.9570   15.0850   -1.8500 C   0  0  0  0  0  0  0  0  0  0  0  0
   -1.8170   14.7780   -1.0040 C   0  0  0  0  0  0  0  0  0  0  0  0
    1.1750   11.2650   -2.3440 O   0  0  0  0  0  0  0  0  0  0  0  0
   -0.6490   12.1690   -1.7260 O   0  0  0  0  0  0  0  0  0  0  0  0
   -0.6190   14.8020   -0.8120 O   0  0  0  0  0  0  0  0  0  0  0  0
   -3.9820   15.2010   -0.3360 C   0  0  0  0  0  0  0  0  0  0  0  0
   -2.7190   14.6620    0.0500 N   0  0  0  0  0  0  0  0  0  0  0  0
   -0.0840   11.7570   -4.1450 C   0  0  0  0  0  0  0  0  0  0  0  0
    0.8690   11.9560   -5.1770 C   0  0  0  0  0  0  0  0  0  0  0  0
   -1.3100   11.1510   -4.4230 C   0  0  0  0  0  0  0  0  0  0  0  0
    2.2250   12.6370   -4.9840 C   0  0  0  0  0  0  0  0  0  0  0  0
   -1.6070   10.7230   -5.7090 C   0  0  0  0  0  0  0  0  0  0  0  0
    0.5440   11.4930   -6.4440 C   0  0  0  0  0  0  0  0  0  0  0  0
    1.4610   11.6270   -7.4260 O   0  0  0  0  0  0  0  0  0  0  0  0
   -0.6710   10.8900   -6.7220 C   0  0  0  0  0  0  0  0  0  0  0  0
  2  1  1  6
  2  3  1  0
  2  4  1  0
  3  5  1  0
  4  6  2  0
  4  7  1  0
  5  8  1  0
  7  9  1  0
  7 10  1  0
  8 11  1  0
  8 12  1  0
 10 13  2  0
  9 14  1  0
 10 15  1  0
 14 15  1  0
  8 16  1  0
 16 17  2  0
 16 18  1  0
 17 19  1  0
 18 20  2  0
 17 21  1  0
 21 22  1  0
 20 23  1  0
 21 23  2  0
M  END
