mac-x0346-diamond-x0852_0_B
     RDKit          3D

 23 24  0  0  0  0  0  0  0  0999 V2000
   -7.6190   13.9400    1.0940 O   0  0  0  0  0  0  0  0  0  0  0  0
   -7.7600   14.9220    0.0900 N   0  0  0  0  0  0  0  0  0  0  0  0
   -6.6990   15.0370   -0.7980 C   0  0  0  0  0  0  0  0  0  0  0  0
   -9.1690   15.1430   -0.2980 C   0  0  0  0  0  0  0  0  0  0  0  0
   -6.8690   15.1040   -2.0160 O   0  0  0  0  0  0  0  0  0  0  0  0
   -9.7850   16.4990    0.1310 C   0  0  0  0  0  0  0  0  0  0  0  0
   -5.2880   15.0620   -0.2930 C   0  0  0  0  0  0  0  0  0  0  0  0
  -10.4900   16.4520    1.4070 O   0  0  0  0  0  0  0  0  0  0  0  0
   -4.2370   15.0110   -1.2190 C   0  0  0  0  0  0  0  0  0  0  0  0
   -4.9690   15.1310    1.0710 C   0  0  0  0  0  0  0  0  0  0  0  0
   -4.4320   14.9470   -2.5730 O   0  0  0  0  0  0  0  0  0  0  0  0
   -2.9130   15.0230   -0.7920 C   0  0  0  0  0  0  0  0  0  0  0  0
   -3.6370   15.1470    1.4950 C   0  0  0  0  0  0  0  0  0  0  0  0
   -9.8170   16.2310    2.6010 C   0  0  0  0  0  0  0  0  0  0  0  0
   -2.6090   15.0900    0.5650 C   0  0  0  0  0  0  0  0  0  0  0  0
   -8.8810   15.1970    2.5640 C   0  0  0  0  0  0  0  0  0  0  0  0
   -9.9890   16.9250    3.8070 C   0  0  0  0  0  0  0  0  0  0  0  0
   -8.1250   14.8510    3.6910 C   0  0  0  0  0  0  0  0  0  0  0  0
   -9.2370   16.5780    4.9490 C   0  0  0  0  0  0  0  0  0  0  0  0
   -9.4580   17.2990    6.1630 C   0  0  0  0  0  0  0  0  0  0  0  0
   -8.3010   15.5380    4.8840 C   0  0  0  0  0  0  0  0  0  0  0  0
   -9.6780   17.8390    7.1680 N   0  0  0  0  0  0  0  0  0  0  0  0
   -7.5280   15.1310    5.9430 O   0  0  0  0  0  0  0  0  0  0  0  0
  1  2  1  0
  2  3  1  0
  2  4  1  0
  3  5  2  0
  4  6  1  0
  3  7  1  0
  6  8  1  0
  7  9  2  0
  7 10  1  0
  9 11  1  0
  9 12  1  0
 10 13  2  0
  8 14  1  0
 12 15  2  0
 13 15  1  0
 14 16  2  0
 14 17  1  0
 16 18  1  0
 17 19  2  0
 19 20  1  0
 18 21  2  0
 19 21  1  0
 20 22  3  0
 21 23  1  0
M  END
