mac-x0178-mac-x0354
     RDKit          3D

 26 28  0  0  0  0  0  0  0  0999 V2000
   -0.3160   18.0860   -6.4110 N   0  0  0  0  0  0  0  0  0  0  0  0
   -1.6870   17.5410   -5.6280 S   0  0  0  0  0  0  0  0  0  0  0  0
   -2.6060   17.1140   -6.6620 O   0  0  0  0  0  0  0  0  0  0  0  0
   -2.0120   18.5860   -4.6930 O   0  0  0  0  0  0  0  0  0  0  0  0
   -1.0810   16.1500   -4.7130 C   0  0  0  0  0  0  0  0  0  0  0  0
    0.1540   16.2450   -4.0510 C   0  0  0  0  0  0  0  0  0  0  0  0
   -1.8370   14.9790   -4.6520 C   0  0  0  0  0  0  0  0  0  0  0  0
    0.6300   15.1550   -3.3130 C   0  0  0  0  0  0  0  0  0  0  0  0
   -1.3590   13.8950   -3.9170 C   0  0  0  0  0  0  0  0  0  0  0  0
   -0.1300   13.9790   -3.2450 C   0  0  0  0  0  0  0  0  0  0  0  0
    0.3080   12.7830   -2.4900 C   0  0  0  0  0  0  0  0  0  0  0  0
    0.3760   12.7880   -1.2480 O   0  0  0  0  0  0  0  0  0  0  0  0
    0.6250   11.7140   -3.2700 N   0  0  0  0  0  0  0  0  0  0  0  0
    0.2060   10.4320   -2.7700 O   0  0  0  0  0  0  0  0  0  0  0  0
    0.8460   11.7730   -4.6560 C   0  0  0  0  0  0  0  0  0  0  0  0
    1.8380   12.5810   -5.2730 C   0  0  0  0  0  0  0  0  0  0  0  0
    0.2380   11.1280   -5.7350 C   0  0  0  0  0  0  0  0  0  0  0  0
    0.8870   11.5690   -6.8540 N   0  0  0  0  0  0  0  0  0  0  0  0
    1.8610   12.4510   -6.5940 N   0  0  0  0  0  0  0  0  0  0  0  0
   -0.8360   10.1680   -5.8580 C   0  0  0  0  0  0  0  0  0  0  0  0
    0.5940   11.1570   -8.2160 C   0  0  0  0  0  0  0  0  0  0  0  0
   -0.6180    8.9240   -6.4680 C   0  0  0  0  0  0  0  0  0  0  0  0
   -2.0980   10.4860   -5.3670 C   0  0  0  0  0  0  0  0  0  0  0  0
   -1.6600    8.0090   -6.5830 C   0  0  0  0  0  0  0  0  0  0  0  0
   -3.1390    9.5710   -5.4830 C   0  0  0  0  0  0  0  0  0  0  0  0
   -2.9190    8.3350   -6.0890 C   0  0  0  0  0  0  0  0  0  0  0  0
  2  1  1  0
  2  3  2  0
  2  4  2  0
  2  5  1  0
  5  6  2  0
  5  7  1  0
  6  8  1  0
  7  9  2  0
  8 10  2  0
  9 10  1  0
 10 11  1  0
 11 12  2  0
 11 13  1  0
 13 14  1  0
 13 15  1  0
 15 16  1  0
 15 17  2  0
 17 18  1  0
 16 19  2  0
 18 19  1  0
 17 20  1  0
 18 21  1  0
 20 22  2  0
 20 23  1  0
 22 24  1  0
 23 25  2  0
 24 26  2  0
 25 26  1  0
M  END
