mac-x0527-mac-x0337
     RDKit          3D

 26 28  0  0  0  0  0  0  0  0999 V2000
   -3.8130   14.9890   -3.5000 O   0  0  0  0  0  0  0  0  0  0  0  0
   -2.9570   14.6590   -2.4150 C   0  0  2  0  0  0  0  0  0  0  0  0
   -1.5480   14.9550   -2.6090 N   0  0  0  0  0  0  0  0  0  0  0  0
   -3.3690   13.5070   -1.2930 S   0  0  0  0  0  0  0  0  0  0  0  0
   -3.5650   15.2130   -1.2300 C   0  0  0  0  0  0  0  0  0  0  0  0
   -1.1320   14.8800   -3.9990 C   0  0  0  0  0  0  0  0  0  0  0  0
   -2.4890   13.1700   -0.7340 O   0  0  0  0  0  0  0  0  0  0  0  0
   -4.3680   14.1570   -0.0200 N   0  0  0  0  0  0  0  0  0  0  0  0
   -4.8160   15.7200   -1.1660 C   0  0  0  0  0  0  0  0  0  0  0  0
   -2.7820   15.0800   -0.1470 N   0  0  0  0  0  0  0  0  0  0  0  0
   -4.1730   12.0560   -1.6490 C   0  0  0  0  0  0  0  0  0  0  0  0
   -1.0360   13.5160   -4.5800 C   0  0  0  0  0  0  0  0  0  0  0  0
   -5.2090   16.0430    0.0490 N   0  0  0  0  0  0  0  0  0  0  0  0
   -3.1800   15.4020    1.0710 C   0  0  0  0  0  0  0  0  0  0  0  0
   -3.6160   11.1500   -2.4160 C   0  0  0  0  0  0  0  0  0  0  0  0
   -5.3770   11.9490   -1.0760 C   0  0  0  0  0  0  0  0  0  0  0  0
   -1.9570   12.5310   -4.3130 C   0  0  0  0  0  0  0  0  0  0  0  0
    0.0050   13.2060   -5.4260 C   0  0  0  0  0  0  0  0  0  0  0  0
   -4.4400   15.8960    1.1670 C   0  0  0  0  0  0  0  0  0  0  0  0
   -4.3380    9.9950   -2.6410 C   0  0  0  0  0  0  0  0  0  0  0  0
   -6.0920   10.8080   -1.2980 C   0  0  0  0  0  0  0  0  0  0  0  0
   -1.8350   11.2480   -4.8860 C   0  0  0  0  0  0  0  0  0  0  0  0
    0.1400   11.9450   -6.0000 C   0  0  0  0  0  0  0  0  0  0  0  0
   -5.5840    9.8070   -2.0840 C   0  0  0  0  0  0  0  0  0  0  0  0
   -6.3460    8.5560   -2.3250 C   0  0  0  0  0  0  0  0  0  0  0  0
   -0.7810   10.9790   -5.7240 C   0  0  0  0  0  0  0  0  0  0  0  0
  2  1  1  6
  2  3  1  0
  2  4  1  0
  2  5  1  0
  3  6  1  0
  4  7  2  0
  4  8  1  0
  5  9  2  0
  5 10  1  0
  4 11  1  0
  6 12  1  0
  9 13  1  0
 10 14  2  0
 11 15  2  0
 11 16  1  0
 12 17  2  0
 12 18  1  0
 13 19  2  0
 14 19  1  0
 15 20  1  0
 16 21  2  0
 17 22  1  0
 18 23  2  0
 20 24  2  0
 21 24  1  0
 24 25  1  0
 22 26  2  0
 23 26  1  0
M  END
