mac-x0161-diamond-x0900_1_A
     RDKit          3D

 24 27  0  0  0  0  0  0  0  0999 V2000
   -4.5020   15.4450    1.1730 N   0  0  0  0  0  0  0  0  0  0  0  0
   -3.6160   14.8840    0.1660 C   0  0  2  0  0  0  0  0  0  0  0  0
   -2.1510   15.2480    0.3990 C   0  0  2  0  0  0  0  0  0  0  0  0
   -4.0690   15.4180   -1.1020 N   0  0  0  0  0  0  0  0  0  0  0  0
   -3.2120   15.1360   -2.2740 C   0  0  0  0  0  0  0  0  0  0  0  0
   -1.4210   14.6880   -0.7920 C   0  0  1  0  0  0  0  0  0  0  0  0
   -1.4360   14.6380    1.5190 N   0  0  0  0  0  0  0  0  0  0  0  0
   -1.7790   15.3760   -2.0090 N   0  0  0  0  0  0  0  0  0  0  0  0
   -0.0570   14.9040   -0.4030 N   0  0  0  0  0  0  0  0  0  0  0  0
   -0.0690   14.5260    1.0030 C   0  0  0  0  0  0  0  0  0  0  0  0
   -0.8770   15.0570   -3.1490 C   0  0  0  0  0  0  0  0  0  0  0  0
   -0.7620   13.6110   -3.5270 C   0  0  0  0  0  0  0  0  0  0  0  0
   -1.1970   12.8680   -4.6040 C   0  0  0  0  0  0  0  0  0  0  0  0
   -0.0890   12.7840   -2.6720 O   0  0  0  0  0  0  0  0  0  0  0  0
   -0.0790   11.4890   -3.1800 N   0  0  0  0  0  0  0  0  0  0  0  0
   -0.7480   11.5670   -4.3370 C   0  0  0  0  0  0  0  0  0  0  0  0
   -0.9540   10.4910   -5.1480 O   0  0  0  0  0  0  0  0  0  0  0  0
   -1.6290   10.8050   -6.3800 C   0  0  0  0  0  0  0  0  0  0  0  0
   -1.9160    9.5840   -7.2750 C   0  0  1  0  0  0  0  0  0  0  0  0
   -0.9000    9.5030   -8.3970 C   0  0  0  0  0  0  0  0  0  0  0  0
   -1.6700    8.2530   -6.5550 C   0  0  0  0  0  0  0  0  0  0  0  0
   -0.9780    9.9830   -9.5160 O   0  0  0  0  0  0  0  0  0  0  0  0
    0.1580    8.7600   -7.9280 N   0  0  0  0  0  0  0  0  0  0  0  0
   -0.2240    7.8990   -6.8480 C   0  0  0  0  0  0  0  0  0  0  0  0
  2  1  1  1
  2  3  1  0
  2  4  1  0
  4  5  1  0
  3  6  1  0
  3  7  1  1
  5  8  1  0
  6  8  1  0
  6  9  1  1
  7 10  1  0
  9 10  1  0
  8 11  1  0
 11 12  1  0
 12 13  2  0
 12 14  1  0
 14 15  1  0
 13 16  1  0
 15 16  2  0
 16 17  1  0
 17 18  1  0
 19 18  1  1
 19 20  1  0
 19 21  1  0
 20 22  2  0
 20 23  1  0
 21 24  1  0
 23 24  1  0
M  END
