mac-x0138-mac-x0411
     RDKit          3D

 26 28  0  0  0  0  0  0  0  0999 V2000
   -0.3990   14.0660   -2.9930 C   0  0  0  0  0  0  0  0  0  0  0  0
   -1.6120   14.2520   -2.2650 N   0  0  0  0  0  0  0  0  0  0  0  0
   -2.8640   14.2910   -2.7860 C   0  0  0  0  0  0  0  0  0  0  0  0
   -1.6660   14.3850   -0.9330 C   0  0  0  0  0  0  0  0  0  0  0  0
   -3.0260   14.0460   -4.2870 C   0  0  0  0  0  0  0  0  0  0  0  0
   -3.7600   14.5290   -1.7990 N   0  0  0  0  0  0  0  0  0  0  0  0
   -2.9910   14.5680   -0.6190 C   0  0  0  0  0  0  0  0  0  0  0  0
   -0.6100   14.3280   -0.1280 N   0  0  0  0  0  0  0  0  0  0  0  0
   -1.7810   13.2430   -4.8830 C   0  0  0  0  0  0  0  0  0  0  0  0
   -3.2400   14.7350    0.7710 C   0  0  0  0  0  0  0  0  0  0  0  0
   -0.9520   14.4430    1.1460 C   0  0  0  0  0  0  0  0  0  0  0  0
   -4.4950   14.9590    1.3260 N   0  0  0  0  0  0  0  0  0  0  0  0
    0.0620   14.3230    2.0680 N   0  0  0  0  0  0  0  0  0  0  0  0
   -2.1810   14.6480    1.6330 N   0  0  0  0  0  0  0  0  0  0  0  0
   -1.8510   11.7770   -5.4390 C   0  0  0  0  0  0  0  0  0  0  0  0
   -0.7400   11.1380   -6.1180 C   0  0  0  0  0  0  0  0  0  0  0  0
   -3.0240   11.0000   -5.3020 C   0  0  0  0  0  0  0  0  0  0  0  0
    0.4550   11.8010   -6.3030 O   0  0  0  0  0  0  0  0  0  0  0  0
   -3.1080    9.6880   -5.7990 C   0  0  0  0  0  0  0  0  0  0  0  0
   -0.8530    9.8140   -6.6180 C   0  0  0  0  0  0  0  0  0  0  0  0
    0.4280    9.0020   -7.4600 Cl  0  0  0  0  0  0  0  0  0  0  0  0
    0.9510   12.6170   -5.2390 C   0  0  0  0  0  0  0  0  0  0  0  0
   -2.0300    9.1000   -6.4540 C   0  0  0  0  0  0  0  0  0  0  0  0
    0.9280   11.9270   -3.8740 C   0  0  0  0  0  0  0  0  0  0  0  0
    1.6270   12.6040   -2.9310 O   0  0  0  0  0  0  0  0  0  0  0  0
    0.3720   10.8750   -3.5960 O   0  0  0  0  0  0  0  0  0  0  0  0
  1  2  1  0
  2  3  1  0
  2  4  1  0
  3  5  1  0
  3  6  2  0
  4  7  2  0
  6  7  1  0
  4  8  1  0
  5  9  1  0
  7 10  1  0
  8 11  2  0
 10 12  1  0
 11 13  1  0
 10 14  2  0
 11 14  1  0
  9 15  1  0
 15 16  2  0
 15 17  1  0
 16 18  1  0
 17 19  2  0
 16 20  1  0
 20 21  1  0
 18 22  1  0
 19 23  1  0
 20 23  2  0
 22 24  1  0
 24 25  1  0
 24 26  2  0
M  END
