mac-x0412-mac-x0451
     RDKit          3D

 12 13  0  0  0  0  0  0  0  0999 V2000
   -7.8500   14.4540   -0.6490 O   0  0  0  0  0  0  0  0  0  0  0  0
   -6.9200   14.8420    0.0440 C   0  0  0  0  0  0  0  0  0  0  0  0
   -7.0010   14.7970    1.4260 N   0  0  0  0  0  0  0  0  0  0  0  0
   -5.6170   15.4350   -0.5730 C   0  0  1  0  0  0  0  0  0  0  0  0
   -4.4090   15.0270    0.2590 C   0  0  0  0  0  0  0  0  0  0  0  0
   -5.9020   14.7470    2.0970 C   0  0  0  0  0  0  0  0  0  0  0  0
   -5.4380   15.1570   -2.0450 C   0  0  0  0  0  0  0  0  0  0  0  0
   -4.5360   14.7010    1.5480 C   0  0  0  0  0  0  0  0  0  0  0  0
   -3.1200   14.9990   -0.4070 C   0  0  0  0  0  0  0  0  0  0  0  0
   -4.2300   14.9400   -2.5770 C   0  0  0  0  0  0  0  0  0  0  0  0
   -3.0510   14.9540   -1.7500 C   0  0  0  0  0  0  0  0  0  0  0  0
   -1.8570   14.9140   -2.3760 F   0  0  0  0  0  0  0  0  0  0  0  0
  1  2  2  0
  2  3  1  0
  2  4  1  0
  4  5  1  0
  3  6  2  0
  4  7  1  6
  5  8  2  0
  6  8  1  0
  5  9  1  0
  7 10  2  0
  9 11  2  0
 10 11  1  0
 11 12  1  0
M  END
