mac-x0392-mac-x0398
     RDKit          3D

 20 21  0  0  0  0  0  0  0  0999 V2000
    0.3490   13.6260   -0.2620 N   0  0  0  0  0  0  0  0  0  0  0  0
   -0.8200   14.3250    0.0860 C   0  0  0  0  0  0  0  0  0  0  0  0
   -1.2440   14.3920    1.3890 C   0  0  0  0  0  0  0  0  0  0  0  0
   -1.6300   14.9850   -0.8410 C   0  0  0  0  0  0  0  0  0  0  0  0
   -1.3080   14.9580   -2.2410 C   0  0  0  0  0  0  0  0  0  0  0  0
   -2.7740   15.6800   -0.4700 C   0  0  0  0  0  0  0  0  0  0  0  0
   -2.3470   15.0310    1.8010 N   0  0  0  0  0  0  0  0  0  0  0  0
   -2.1040   14.8870   -3.2380 N   0  0  0  0  0  0  0  0  0  0  0  0
    0.0200   15.0040   -2.4580 O   0  0  0  0  0  0  0  0  0  0  0  0
   -3.0940   15.6750    0.8660 C   0  0  0  0  0  0  0  0  0  0  0  0
   -3.4950   14.8370   -3.0730 C   0  0  0  0  0  0  0  0  0  0  0  0
   -4.2180   14.8830   -4.0570 O   0  0  0  0  0  0  0  0  0  0  0  0
   -4.2190   14.7550   -1.7380 C   0  0  0  0  0  0  0  0  0  0  0  0
   -5.5510   15.1660   -1.6340 C   0  0  0  0  0  0  0  0  0  0  0  0
   -3.6130   14.2660   -0.5600 C   0  0  0  0  0  0  0  0  0  0  0  0
   -6.2670   15.6320   -2.6830 O   0  0  0  0  0  0  0  0  0  0  0  0
   -6.2500   15.1240   -0.4340 C   0  0  0  0  0  0  0  0  0  0  0  0
   -4.3300   14.2230    0.6600 C   0  0  0  0  0  0  0  0  0  0  0  0
   -5.6550   14.6610    0.7270 C   0  0  0  0  0  0  0  0  0  0  0  0
   -6.3780   14.6370    1.9280 N   0  0  0  0  0  0  0  0  0  0  0  0
  1  2  1  0
  2  3  2  0
  2  4  1  0
  4  5  1  0
  4  6  2  0
  3  7  1  0
  5  8  2  3
  5  9  1  0
  6 10  1  0
  7 10  2  0
  8 11  1  0
 11 12  2  0
 11 13  1  0
 13 14  2  0
 13 15  1  0
 14 16  1  0
 14 17  1  0
 15 18  2  0
 17 19  2  0
 18 19  1  0
 19 20  1  0
M  END
