mac-x0555-mac-x0224
     RDKit          3D

 22 24  0  0  0  0  0  0  0  0999 V2000
   -7.6920   14.3410    3.1890 N   0  0  0  0  0  0  0  0  0  0  0  0
   -7.4860   14.5860    1.8400 C   0  0  0  0  0  0  0  0  0  0  0  0
   -8.4530   14.8340    0.8650 C   0  0  0  0  0  0  0  0  0  0  0  0
   -6.2060   14.5810    1.4080 C   0  0  0  0  0  0  0  0  0  0  0  0
   -5.9010   14.7990    0.1170 C   0  0  0  0  0  0  0  0  0  0  0  0
   -8.1800   15.0680   -0.4520 N   0  0  0  0  0  0  0  0  0  0  0  0
   -6.8980   15.0470   -0.8170 C   0  0  0  0  0  0  0  0  0  0  0  0
   -4.6170   14.7580   -0.2140 C   0  0  0  0  0  0  0  0  0  0  0  0
   -6.5130   15.2650   -2.1300 C   0  0  0  0  0  0  0  0  0  0  0  0
   -4.2700   14.9550   -1.4860 C   0  0  0  0  0  0  0  0  0  0  0  0
   -5.1790   15.2160   -2.4720 C   0  0  0  0  0  0  0  0  0  0  0  0
   -2.9510   14.8440   -1.7240 C   0  0  0  0  0  0  0  0  0  0  0  0
   -2.0540   14.7430   -0.6620 C   0  0  0  0  0  0  0  0  0  0  0  0
   -2.5940   14.8110   -3.0470 C   0  0  0  0  0  0  0  0  0  0  0  0
   -2.4830   14.7890    1.0880 S   0  0  0  0  0  0  0  0  0  0  0  0
   -0.7320   14.5890   -0.9780 C   0  0  0  0  0  0  0  0  0  0  0  0
   -1.2890   14.6600   -3.3570 C   0  0  0  0  0  0  0  0  0  0  0  0
   -1.0020   14.6300   -4.6930 O   0  0  0  0  0  0  0  0  0  0  0  0
   -0.3570   14.5400   -2.3190 C   0  0  0  0  0  0  0  0  0  0  0  0
    1.0350   14.3530   -2.6500 C   0  0  0  0  0  0  0  0  0  0  0  0
    1.9040   14.2290   -1.8150 O   0  0  0  0  0  0  0  0  0  0  0  0
    1.2680   14.3090   -3.9620 O   0  0  0  0  0  0  0  0  0  0  0  0
  1  2  1  0
  2  3  2  0
  2  4  1  0
  4  5  2  0
  3  6  1  0
  5  7  1  0
  6  7  2  0
  5  8  1  0
  7  9  1  0
  8 10  2  0
  9 11  2  0
 10 11  1  0
 10 12  1  0
 12 13  2  0
 12 14  1  0
 13 15  1  0
 13 16  1  0
 14 17  2  0
 17 18  1  0
 16 19  2  0
 17 19  1  0
 19 20  1  0
 20 21  2  0
 20 22  1  0
M  END
