mac-x0564-diamond-x0962_3_A
     RDKit          3D

 24 27  0  0  0  0  0  0  0  0999 V2000
    0.8470   14.3710   -1.0950 O   0  0  0  0  0  0  0  0  0  0  0  0
    0.0430   14.3690   -2.0130 C   0  0  0  0  0  0  0  0  0  0  0  0
    0.4070   14.0980   -3.3260 N   0  0  0  0  0  0  0  0  0  0  0  0
   -1.3680   14.6230   -1.8720 C   0  0  0  0  0  0  0  0  0  0  0  0
   -2.2370   14.7200   -2.9180 C   0  0  0  0  0  0  0  0  0  0  0  0
   -0.4680   14.2100   -4.2790 C   0  0  0  0  0  0  0  0  0  0  0  0
   -2.0230   14.7920   -0.6900 O   0  0  0  0  0  0  0  0  0  0  0  0
   -0.0110   13.9080   -5.6820 C   0  0  0  0  0  0  0  0  0  0  0  0
   -1.7910   14.5880   -4.1680 N   0  0  0  0  0  0  0  0  0  0  0  0
   -3.3400   14.9920   -1.0190 C   0  0  0  0  0  0  0  0  0  0  0  0
   -3.5160   14.9510   -2.4020 C   0  0  0  0  0  0  0  0  0  0  0  0
    1.1830   12.9860   -5.7570 C   0  0  0  0  0  0  0  0  0  0  0  0
   -4.7950   15.1280   -2.9290 C   0  0  0  0  0  0  0  0  0  0  0  0
   -4.3780   15.2050   -0.1190 C   0  0  0  0  0  0  0  0  0  0  0  0
    1.0660   11.6200   -6.4380 C   0  0  0  0  0  0  0  0  0  0  0  0
   -5.8580   15.3440   -2.0490 C   0  0  0  0  0  0  0  0  0  0  0  0
   -5.6500   15.3800   -0.6740 C   0  0  0  0  0  0  0  0  0  0  0  0
    0.3360   11.2940   -7.7470 C   0  0  1  0  0  0  0  0  0  0  0  0
    1.1780   11.2190   -8.9330 N   0  0  0  0  0  0  0  0  0  0  0  0
   -0.3630   10.0160   -7.6400 C   0  0  0  0  0  0  0  0  0  0  0  0
    0.0070    8.8620   -8.2880 N   0  0  0  0  0  0  0  0  0  0  0  0
   -1.4720    9.6820   -6.9190 C   0  0  0  0  0  0  0  0  0  0  0  0
   -0.8870    7.8990   -7.9340 C   0  0  0  0  0  0  0  0  0  0  0  0
   -1.7930    8.3700   -7.1060 N   0  0  0  0  0  0  0  0  0  0  0  0
  1  2  2  0
  2  3  1  0
  2  4  1  0
  4  5  2  0
  3  6  2  0
  4  7  1  0
  6  8  1  0
  5  9  1  0
  6  9  1  0
  7 10  1  0
  5 11  1  0
 10 11  2  0
  8 12  1  0
 11 13  1  0
 10 14  1  0
 12 15  1  0
 13 16  2  0
 14 17  2  0
 16 17  1  0
 15 18  1  0
 18 19  1  6
 18 20  1  0
 20 21  1  0
 20 22  2  0
 21 23  1  0
 22 24  1  0
 23 24  2  0
M  END
