mac-x0398-mac-x0206
     RDKit          3D

 19 21  0  0  0  0  0  0  0  0999 V2000
   -6.6640   12.1300    2.0140 N   0  0  0  0  0  0  0  0  0  0  0  0
   -5.9310   12.6760    0.9670 C   0  0  0  0  0  0  0  0  0  0  0  0
   -4.5790   12.5320    0.9410 C   0  0  0  0  0  0  0  0  0  0  0  0
   -6.5140   13.3910   -0.0440 C   0  0  0  0  0  0  0  0  0  0  0  0
   -5.7300   13.9620   -1.0400 C   0  0  0  0  0  0  0  0  0  0  0  0
   -3.7950   13.0690   -0.0710 C   0  0  0  0  0  0  0  0  0  0  0  0
   -6.4880   14.7370   -1.8170 O   0  0  0  0  0  0  0  0  0  0  0  0
   -4.3980   13.8070   -1.0720 C   0  0  0  0  0  0  0  0  0  0  0  0
   -3.6160   14.4890   -2.0590 C   0  0  0  0  0  0  0  0  0  0  0  0
   -6.2870   14.9950   -0.5150 C   0  0  0  0  0  0  0  0  0  0  0  0
   -4.2020   14.6560   -3.3580 O   0  0  0  0  0  0  0  0  0  0  0  0
   -2.2480   14.0670   -2.1370 O   0  0  0  0  0  0  0  0  0  0  0  0
   -3.7960   15.7230   -1.1450 C   0  0  1  0  0  0  0  0  0  0  0  0
   -4.9690   15.4320   -0.1290 C   0  0  0  0  0  0  0  0  0  0  0  0
   -7.3260   14.7280    0.3870 C   0  0  0  0  0  0  0  0  0  0  0  0
   -2.5360   16.0630   -0.4450 N   0  0  0  0  0  0  0  0  0  0  0  0
   -7.0750   14.8570    1.7540 C   0  0  0  0  0  0  0  0  0  0  0  0
   -4.7640   15.5490    1.2570 C   0  0  0  0  0  0  0  0  0  0  0  0
   -5.7970   15.2550    2.1780 C   0  0  0  0  0  0  0  0  0  0  0  0
  1  2  1  0
  2  3  2  0
  2  4  1  0
  4  5  2  0
  3  6  1  0
  5  7  1  0
  5  8  1  0
  6  8  2  0
  8  9  1  0
  7 10  1  0
  9 11  1  0
  9 12  1  0
  9 13  1  0
 10 14  2  0
 13 14  1  0
 10 15  1  0
 13 16  1  1
 15 17  2  0
 14 18  1  0
 17 19  1  0
 18 19  2  0
M  END
