mac-x0333-mac-x0341
     RDKit          3D

 12 13  0  0  0  0  0  0  0  0999 V2000
   -2.3590   15.2340   -2.6070 O   0  0  0  0  0  0  0  0  0  0  0  0
   -3.3000   15.1000   -1.6260 C   0  0  0  0  0  0  0  0  0  0  0  0
   -2.9630   15.0060   -0.2610 C   0  0  0  0  0  0  0  0  0  0  0  0
   -4.6120   15.0570   -2.0380 C   0  0  0  0  0  0  0  0  0  0  0  0
   -5.5610   14.9100   -1.0560 C   0  0  0  0  0  0  0  0  0  0  0  0
   -3.9650   14.8610    0.7150 C   0  0  0  0  0  0  0  0  0  0  0  0
   -5.2930   14.8070    0.3050 C   0  0  0  0  0  0  0  0  0  0  0  0
   -6.9850   14.8290   -1.2230 C   0  0  0  0  0  0  0  0  0  0  0  0
   -7.5210   14.8480   -2.3050 O   0  0  0  0  0  0  0  0  0  0  0  0
   -6.4810   14.6480    1.0800 N   0  0  0  0  0  0  0  0  0  0  0  0
   -7.6250   14.6990    0.1400 C   0  0  0  0  0  0  0  0  0  0  0  0
   -6.6150   14.9270    2.4480 N   0  0  0  0  0  0  0  0  0  0  0  0
  1  2  1  0
  2  3  2  0
  2  4  1  0
  4  5  2  0
  3  6  1  0
  5  7  1  0
  6  7  2  0
  5  8  1  0
  8  9  2  0
  7 10  1  0
  8 11  1  0
 10 11  1  0
 10 12  1  0
M  END
