mac-x0392-diamond-x1018_0_A
     RDKit          3D

 18 20  0  0  0  0  0  0  0  0999 V2000
    0.2640   14.8910    0.0570 N   0  0  0  0  0  0  0  0  0  0  0  0
   -1.0410   14.2410    0.2100 C   0  0  1  0  0  0  0  0  0  0  0  0
   -1.9190   15.1180    1.1410 C   0  0  0  0  0  0  0  0  0  0  0  0
   -1.6770   13.8920   -1.1560 C   0  0  2  0  0  0  0  0  0  0  0  0
   -1.0090   14.5070   -2.3780 C   0  0  0  0  0  0  0  0  0  0  0  0
   -3.2100   13.9770   -1.2650 C   0  0  1  0  0  0  0  0  0  0  0  0
   -3.1530   15.7020    0.5970 N   0  0  0  0  0  0  0  0  0  0  0  0
   -1.5650   14.7640   -3.4370 O   0  0  0  0  0  0  0  0  0  0  0  0
    0.3120   14.7620   -2.2270 O   0  0  0  0  0  0  0  0  0  0  0  0
   -3.9570   14.7230   -0.1040 C   0  0  1  0  0  0  0  0  0  0  0  0
   -3.5880   14.6980   -2.4960 N   0  0  0  0  0  0  0  0  0  0  0  0
   -4.8700   15.2580   -2.2470 N   0  0  0  0  0  0  0  0  0  0  0  0
   -5.0700   15.3780   -0.8570 N   0  0  0  0  0  0  0  0  0  0  0  0
   -4.4130   13.8530    1.0440 C   0  0  0  0  0  0  0  0  0  0  0  0
   -6.4460   15.1520   -0.5080 N   0  0  0  0  0  0  0  0  0  0  0  0
   -5.7000   13.5410    1.2470 C   0  0  0  0  0  0  0  0  0  0  0  0
   -6.7820   14.0130    0.3280 C   0  0  1  0  0  0  0  0  0  0  0  0
   -8.2010   14.5530    1.2620 Cl  0  0  0  0  0  0  0  0  0  0  0  0
  2  1  1  6
  2  3  1  0
  2  4  1  0
  4  5  1  6
  4  6  1  0
  3  7  1  0
  5  8  2  0
  5  9  1  0
  6 10  1  0
  7 10  1  0
  6 11  1  6
 11 12  1  0
 10 13  1  0
 12 13  1  0
 10 14  1  1
 13 15  1  0
 14 16  2  0
 15 17  1  0
 16 17  1  0
 17 18  1  1
M  END
