mac-x0302-mac-x0284
     RDKit          3D

 22 23  0  0  0  0  0  0  0  0999 V2000
    1.5810   14.1810   -3.4000 O   0  0  0  0  0  0  0  0  0  0  0  0
    0.5930   14.0700   -2.4830 C   0  0  0  0  0  0  0  0  0  0  0  0
    0.8080   13.4810   -1.4390 O   0  0  0  0  0  0  0  0  0  0  0  0
   -0.7290   14.7150   -2.9000 C   0  0  2  0  0  0  0  0  0  0  0  0
   -1.1850   15.9600   -2.3570 N   0  0  0  0  0  0  0  0  0  0  0  0
   -2.0730   14.2400   -2.5900 C   0  0  0  0  0  0  0  0  0  0  0  0
   -2.5840   16.0740   -2.3700 C   0  0  0  0  0  0  0  0  0  0  0  0
   -2.3560   14.0430   -1.2200 C   0  0  0  0  0  0  0  0  0  0  0  0
   -3.0540   14.0390   -3.5260 C   0  0  0  0  0  0  0  0  0  0  0  0
   -3.1210   16.3560   -3.4390 O   0  0  0  0  0  0  0  0  0  0  0  0
   -2.8510   14.2160   -4.8640 O   0  0  0  0  0  0  0  0  0  0  0  0
   -3.4940   15.8100   -1.2040 C   0  0  0  0  0  0  0  0  0  0  0  0
   -3.6210   13.6600   -0.8000 C   0  0  0  0  0  0  0  0  0  0  0  0
   -4.3210   13.6560   -3.1310 C   0  0  0  0  0  0  0  0  0  0  0  0
   -3.9160   13.4670    0.6600 C   0  0  0  0  0  0  0  0  0  0  0  0
   -4.8690   15.5740   -1.4470 C   0  0  0  0  0  0  0  0  0  0  0  0
   -2.9990   15.7930    0.1080 C   0  0  0  0  0  0  0  0  0  0  0  0
   -4.6100   13.4690   -1.7720 C   0  0  0  0  0  0  0  0  0  0  0  0
   -5.7210   15.3150   -0.3750 C   0  0  0  0  0  0  0  0  0  0  0  0
   -3.8710   15.5340    1.1670 C   0  0  0  0  0  0  0  0  0  0  0  0
   -7.0580   15.0770   -0.5560 O   0  0  0  0  0  0  0  0  0  0  0  0
   -5.2250   15.2920    0.9270 C   0  0  0  0  0  0  0  0  0  0  0  0
  1  2  1  0
  2  3  2  0
  2  4  1  0
  4  5  1  1
  4  6  1  0
  5  7  1  0
  6  8  2  0
  6  9  1  0
  7 10  2  0
  9 11  1  0
  7 12  1  0
  8 13  1  0
  9 14  2  0
 13 15  1  0
 12 16  2  0
 12 17  1  0
 13 18  2  0
 14 18  1  0
 16 19  1  0
 17 20  2  0
 19 21  1  0
 19 22  2  0
 20 22  1  0
M  END
