mac-x0321-diamond-x0282_0_A
     RDKit          3D

 23 25  0  0  0  0  0  0  0  0999 V2000
   -4.1020   16.1320    0.6680 Cl  0  0  0  0  0  0  0  0  0  0  0  0
   -3.7810   14.9620   -0.6520 C   0  0  2  0  0  0  0  0  0  0  0  0
   -2.9560   15.5900   -1.8000 C   0  0  0  0  0  0  0  0  0  0  0  0
   -4.9410   13.9690   -1.0330 C   0  0  2  0  0  0  0  0  0  0  0  0
   -3.4180   15.3570   -3.2610 C   0  0  1  0  0  0  0  0  0  0  0  0
   -5.4240   14.0770   -2.4690 C   0  0  0  0  0  0  0  0  0  0  0  0
   -6.0990   13.9110    0.0650 C   0  0  2  0  0  0  0  0  0  0  0  0
   -4.2020   12.6670   -0.7670 C   0  0  0  0  0  0  0  0  0  0  0  0
   -2.3680   14.5940   -4.0760 C   0  0  0  0  0  0  0  0  0  0  0  0
   -7.3410   14.8010   -0.0880 C   0  0  0  0  0  0  0  0  0  0  0  0
   -4.7490   14.6870   -3.4420 C   0  0  0  0  0  0  0  0  0  0  0  0
   -5.5330   13.9860    1.4950 C   0  0  0  0  0  0  0  0  0  0  0  0
   -3.4240   13.0730    0.3950 N   0  0  0  0  0  0  0  0  0  0  0  0
   -1.1990   15.2700   -4.2040 O   0  0  0  0  0  0  0  0  0  0  0  0
   -2.5300   13.4910   -4.5830 O   0  0  0  0  0  0  0  0  0  0  0  0
   -8.4390   14.0640   -0.6130 O   0  0  0  0  0  0  0  0  0  0  0  0
   -4.1080   13.4190    1.6420 C   0  0  0  0  0  0  0  0  0  0  0  0
   -2.1210   13.5620    0.2360 C   0  0  0  0  0  0  0  0  0  0  0  0
   -1.5620   13.4440   -0.9800 N   0  0  0  0  0  0  0  0  0  0  0  0
   -1.4640   14.1180    1.2940 N   0  0  0  0  0  0  0  0  0  0  0  0
   -0.3150   13.8990   -1.1600 C   0  0  0  0  0  0  0  0  0  0  0  0
   -0.2100   14.5440    1.0440 C   0  0  0  0  0  0  0  0  0  0  0  0
    0.4110   14.4640   -0.1700 C   0  0  0  0  0  0  0  0  0  0  0  0
  2  1  1  6
  2  3  1  0
  2  4  1  0
  3  5  1  0
  4  6  1  6
  4  7  1  0
  4  8  1  0
  5  9  1  1
  7 10  1  6
  5 11  1  0
  6 11  2  0
  7 12  1  0
  8 13  1  0
  9 14  1  0
  9 15  2  0
 10 16  1  0
 12 17  1  0
 13 17  1  0
 13 18  1  0
 18 19  2  0
 18 20  1  0
 19 21  1  0
 20 22  2  0
 21 23  2  0
 22 23  1  0
M  END
