mac-x0522-diamond-x0962_3_A
     RDKit          3D

 23 25  0  0  0  0  0  0  0  0999 V2000
    1.2440    8.3400  -11.9330 O   0  0  0  0  0  0  0  0  0  0  0  0
    2.3560    9.0040  -11.3740 C   0  0  2  0  0  0  0  0  0  0  0  0
    3.1370    7.9310  -10.7680 N   0  0  0  0  0  0  0  0  0  0  0  0
    1.7770   10.0210  -10.3410 C   0  0  0  0  0  0  0  0  0  0  0  0
    3.0740    9.6860  -12.5640 C   0  0  0  0  0  0  0  0  0  0  0  0
    0.3160   10.4060  -10.2170 C   0  0  0  0  0  0  0  0  0  0  0  0
    2.6900    7.1070   -9.7830 C   0  0  0  0  0  0  0  0  0  0  0  0
    4.1960    9.0800  -13.1740 C   0  0  0  0  0  0  0  0  0  0  0  0
    2.6550   10.9230  -13.0860 C   0  0  0  0  0  0  0  0  0  0  0  0
   -0.0220   10.9360   -8.8070 C   0  0  2  0  0  0  0  0  0  0  0  0
    3.1160    5.8980   -9.4980 N   0  0  0  0  0  0  0  0  0  0  0  0
    1.4190    7.6540   -8.7650 S   0  0  0  0  0  0  0  0  0  0  0  0
    4.8550    9.6860  -14.2480 C   0  0  0  0  0  0  0  0  0  0  0  0
    3.3160   11.5240  -14.1570 C   0  0  0  0  0  0  0  0  0  0  0  0
    1.1740   11.2880   -8.0490 N   0  0  0  0  0  0  0  0  0  0  0  0
    1.4350    6.1880   -7.8960 C   0  0  0  0  0  0  0  0  0  0  0  0
    2.3990    5.3760   -8.4250 C   0  0  0  0  0  0  0  0  0  0  0  0
    4.4140   10.9090  -14.7400 C   0  0  0  0  0  0  0  0  0  0  0  0
   -0.6700    9.9000   -8.0150 C   0  0  0  0  0  0  0  0  0  0  0  0
   -0.6910    8.6000   -8.4160 N   0  0  0  0  0  0  0  0  0  0  0  0
   -1.3430    9.9230   -6.8260 C   0  0  0  0  0  0  0  0  0  0  0  0
   -1.3630    7.8920   -7.4800 C   0  0  0  0  0  0  0  0  0  0  0  0
   -1.7760    8.6660   -6.5030 N   0  0  0  0  0  0  0  0  0  0  0  0
  2  1  1  6
  2  3  1  0
  2  4  1  0
  2  5  1  0
  4  6  1  0
  3  7  1  0
  5  8  2  0
  5  9  1  0
  6 10  1  0
  7 11  2  0
  7 12  1  0
  8 13  1  0
  9 14  2  0
 10 15  1  1
 12 16  1  0
 11 17  1  0
 16 17  2  0
 13 18  2  0
 14 18  1  0
 10 19  1  0
 19 20  1  0
 19 21  2  0
 20 22  1  0
 21 23  1  0
 22 23  2  0
M  END
