mac-x0572-mac-x0341
     RDKit          3D

 13 14  0  0  0  0  0  0  0  0999 V2000
   -7.9240   14.5280    3.1830 C   0  0  0  0  0  0  0  0  0  0  0  0
   -7.1900   14.6380    1.8660 C   0  0  0  0  0  0  0  0  0  0  0  0
   -5.8360   14.7350    2.0330 N   0  0  0  0  0  0  0  0  0  0  0  0
   -7.8070   14.6380    0.6710 C   0  0  0  0  0  0  0  0  0  0  0  0
   -9.1740   14.5380    0.4850 O   0  0  0  0  0  0  0  0  0  0  0  0
   -6.9360   14.7600   -0.5560 C   0  0  0  0  0  0  0  0  0  0  0  0
   -5.0630   15.0700    1.0510 C   0  0  0  0  0  0  0  0  0  0  0  0
   -7.3400   14.3720   -1.6470 O   0  0  0  0  0  0  0  0  0  0  0  0
   -5.5670   15.3940   -0.3460 C   0  0  1  0  0  0  0  0  0  0  0  0
   -3.6150   15.1290    1.3250 C   0  0  0  0  0  0  0  0  0  0  0  0
   -2.7750   15.0890    0.2940 C   0  0  0  0  0  0  0  0  0  0  0  0
   -4.5240   15.1210   -1.3900 C   0  0  0  0  0  0  0  0  0  0  0  0
   -3.2290   14.9890   -1.0740 C   0  0  0  0  0  0  0  0  0  0  0  0
  1  2  1  0
  2  3  1  0
  2  4  2  0
  4  5  1  0
  4  6  1  0
  3  7  2  0
  6  8  2  0
  6  9  1  0
  7  9  1  0
  7 10  1  0
 10 11  2  0
  9 12  1  6
 11 13  1  0
 12 13  2  0
M  END
