mac-x0417-diamond-x0724_0_A
     RDKit          3D

 30 33  0  0  0  0  0  0  0  0999 V2000
    1.7750   12.4230   -2.6280 O   0  0  0  0  0  0  0  0  0  0  0  0
    0.5470   12.0070   -3.1850 C   0  0  0  0  0  0  0  0  0  0  0  0
    0.6470   10.6050   -3.3490 O   0  0  0  0  0  0  0  0  0  0  0  0
    0.2640   12.6320   -4.5790 C   0  0  0  0  0  0  0  0  0  0  0  0
   -0.5560   12.1860   -2.1480 C   0  0  0  0  0  0  0  0  0  0  0  0
   -0.3320   13.3760   -1.2260 C   0  0  0  0  0  0  0  0  0  0  0  0
    0.2140   11.6930   -5.7280 C   0  0  0  0  0  0  0  0  0  0  0  0
   -1.1110   14.5860   -1.7240 C   0  0  0  0  0  0  0  0  0  0  0  0
    1.2030   11.7050   -6.6270 N   0  0  0  0  0  0  0  0  0  0  0  0
   -0.7710   10.7260   -6.0370 C   0  0  0  0  0  0  0  0  0  0  0  0
    0.8660   10.7270   -7.5590 O   0  0  0  0  0  0  0  0  0  0  0  0
   -0.3100   10.1450   -7.2020 C   0  0  0  0  0  0  0  0  0  0  0  0
   -1.9790   10.2790   -5.4800 C   0  0  0  0  0  0  0  0  0  0  0  0
   -2.4850   14.6340   -1.1150 C   0  0  0  0  0  0  0  0  0  0  0  0
   -0.9700    9.1220   -7.8790 C   0  0  0  0  0  0  0  0  0  0  0  0
   -2.6720    9.2520   -6.1360 C   0  0  0  0  0  0  0  0  0  0  0  0
   -2.5930   14.7580    0.2680 C   0  0  0  0  0  0  0  0  0  0  0  0
   -3.6480   14.5480   -1.8960 C   0  0  0  0  0  0  0  0  0  0  0  0
   -2.1750    8.6850   -7.3120 C   0  0  0  0  0  0  0  0  0  0  0  0
   -3.8370   14.7890    0.8840 C   0  0  0  0  0  0  0  0  0  0  0  0
   -4.9060   14.5800   -1.2810 C   0  0  0  0  0  0  0  0  0  0  0  0
   -4.9980   14.6950    0.1130 C   0  0  0  0  0  0  0  0  0  0  0  0
   -6.2570   14.7200    0.7640 N   0  0  0  0  0  0  0  0  0  0  0  0
   -7.4360   14.6190    0.0930 N   0  0  0  0  0  0  0  0  0  0  0  0
   -6.4660   14.8490    2.1160 C   0  0  0  0  0  0  0  0  0  0  0  0
   -7.8230   14.8450    2.3410 C   0  0  0  0  0  0  0  0  0  0  0  0
   -8.3680   14.6970    1.0490 C   0  0  0  0  0  0  0  0  0  0  0  0
   -8.5410   14.9720    3.6360 C   0  0  0  0  0  0  0  0  0  0  0  0
   -8.2850   13.7830    4.4380 N   0  0  0  0  0  0  0  0  0  0  0  0
   -8.7080   13.9830    5.8160 C   0  0  0  0  0  0  0  0  0  0  0  0
  2  1  1  0
  2  3  1  0
  2  4  1  0
  2  5  1  0
  5  6  1  0
  4  7  1  0
  6  8  1  0
  7  9  2  0
  7 10  1  0
  9 11  1  0
 10 12  2  0
 11 12  1  0
 10 13  1  0
  8 14  1  0
 12 15  1  0
 13 16  2  0
 14 17  2  0
 14 18  1  0
 15 19  2  0
 16 19  1  0
 17 20  1  0
 18 21  2  0
 20 22  2  0
 21 22  1  0
 22 23  1  0
 23 24  1  0
 23 25  1  0
 25 26  2  0
 24 27  2  0
 26 27  1  0
 26 28  1  0
 28 29  1  0
 29 30  1  0
M  END
