mac-x0496-mac-x0182
     RDKit          3D

 33 36  0  0  0  0  0  0  0  0999 V2000
   -9.9790   17.8260    4.7450 C   0  0  0  0  0  0  0  0  0  0  0  0
   -9.9900   16.7970    3.6860 C   0  0  0  0  0  0  0  0  0  0  0  0
  -11.0010   16.6380    2.8250 N   0  0  0  0  0  0  0  0  0  0  0  0
   -8.9560   15.9170    3.5150 N   0  0  0  0  0  0  0  0  0  0  0  0
  -10.5860   15.5770    2.0160 O   0  0  0  0  0  0  0  0  0  0  0  0
   -9.3620   15.1970    2.4910 C   0  0  0  0  0  0  0  0  0  0  0  0
   -8.6880   14.0620    1.8130 C   0  0  0  0  0  0  0  0  0  0  0  0
   -7.2620   14.3150    1.7030 N   0  0  0  0  0  0  0  0  0  0  0  0
   -6.7370   14.6390    0.4670 C   0  0  0  0  0  0  0  0  0  0  0  0
   -7.4430   14.8370   -0.5160 O   0  0  0  0  0  0  0  0  0  0  0  0
   -5.2620   14.7440    0.3440 C   0  0  0  0  0  0  0  0  0  0  0  0
   -4.4340   14.7780    1.4590 C   0  0  0  0  0  0  0  0  0  0  0  0
   -4.7010   14.8040   -0.9400 C   0  0  0  0  0  0  0  0  0  0  0  0
   -3.0540   14.8630    1.3110 C   0  0  0  0  0  0  0  0  0  0  0  0
   -3.3160   14.8900   -1.0880 C   0  0  0  0  0  0  0  0  0  0  0  0
   -2.7060   14.9430   -2.4260 C   0  0  0  0  0  0  0  0  0  0  0  0
   -2.4920   14.9170    0.0410 C   0  0  0  0  0  0  0  0  0  0  0  0
   -1.5390   14.6300   -2.8380 N   0  0  0  0  0  0  0  0  0  0  0  0
   -3.5750   15.4050   -3.3390 O   0  0  0  0  0  0  0  0  0  0  0  0
   -1.2010   14.7660   -4.2630 C   0  0  0  0  0  0  0  0  0  0  0  0
   -1.6450   13.5120   -5.0450 C   0  0  0  0  0  0  0  0  0  0  0  0
   -1.7410   12.3400   -4.1430 N   0  0  0  0  0  0  0  0  0  0  0  0
   -0.6960   11.2370   -4.2970 S   0  0  2  0  0  0  0  0  0  0  0  0
   -0.0880   10.4330   -3.2600 O   0  0  0  0  0  0  0  0  0  0  0  0
    0.5590   12.0330   -5.0600 N   0  0  0  0  0  0  0  0  0  0  0  0
   -1.1030   10.2350   -5.6520 C   0  0  0  0  0  0  0  0  0  0  0  0
    0.7830   11.5400   -6.3110 C   0  0  0  0  0  0  0  0  0  0  0  0
   -0.2160   10.5060   -6.6850 C   0  0  0  0  0  0  0  0  0  0  0  0
   -2.1190    9.3040   -5.7570 C   0  0  0  0  0  0  0  0  0  0  0  0
    1.6920   11.8550   -7.0290 O   0  0  0  0  0  0  0  0  0  0  0  0
   -2.2330    8.6250   -6.9710 C   0  0  0  0  0  0  0  0  0  0  0  0
   -0.3190    9.8400   -7.8940 C   0  0  0  0  0  0  0  0  0  0  0  0
   -1.3430    8.8880   -8.0330 C   0  0  0  0  0  0  0  0  0  0  0  0
  1  2  1  0
  2  3  2  0
  2  4  1  0
  3  5  1  0
  4  6  2  0
  5  6  1  0
  6  7  1  0
  7  8  1  0
  8  9  1  0
  9 10  2  0
  9 11  1  0
 11 12  2  0
 11 13  1  0
 12 14  1  0
 13 15  2  0
 15 16  1  0
 14 17  2  0
 15 17  1  0
 16 18  2  3
 16 19  1  0
 18 20  1  0
 20 21  1  0
 21 22  1  0
 22 23  2  0
 23 24  2  0
 23 25  1  6
 23 26  1  0
 25 27  1  0
 26 28  2  0
 27 28  1  0
 26 29  1  0
 27 30  2  0
 29 31  2  0
 28 32  1  0
 31 33  1  0
 32 33  2  0
M  END
