mac-x0333-mac-x0228
     RDKit          3D

 12 13  0  0  0  0  0  0  0  0999 V2000
   -2.1940   14.8190   -2.7020 C   0  0  0  0  0  0  0  0  0  0  0  0
   -0.9830   14.6870   -2.1250 O   0  0  0  0  0  0  0  0  0  0  0  0
   -2.3020   14.8820   -3.9090 O   0  0  0  0  0  0  0  0  0  0  0  0
   -3.2850   14.8640   -1.6940 C   0  0  0  0  0  0  0  0  0  0  0  0
   -4.6450   14.8730   -2.0410 C   0  0  0  0  0  0  0  0  0  0  0  0
   -2.8990   14.8920   -0.3320 C   0  0  0  0  0  0  0  0  0  0  0  0
   -5.5640   14.9030   -1.0100 C   0  0  0  0  0  0  0  0  0  0  0  0
   -3.8530   14.9280    0.6840 C   0  0  0  0  0  0  0  0  0  0  0  0
   -5.1800   14.9280    0.3110 C   0  0  0  0  0  0  0  0  0  0  0  0
   -6.9180   14.9070   -1.1370 O   0  0  0  0  0  0  0  0  0  0  0  0
   -6.2480   14.9500    1.1490 O   0  0  0  0  0  0  0  0  0  0  0  0
   -7.2970   14.6250    0.2240 C   0  0  0  0  0  0  0  0  0  0  0  0
  1  2  1  0
  1  3  2  0
  1  4  1  0
  4  5  2  0
  4  6  1  0
  5  7  1  0
  6  8  2  0
  7  9  2  0
  8  9  1  0
  7 10  1  0
  9 11  1  0
 10 12  1  0
 11 12  1  0
M  END
