mac-x0182-diamond-x0967_0_A
     RDKit          3D

 24 27  0  0  0  0  0  0  0  0999 V2000
    1.7080   11.8870   -6.9190 O   0  0  0  0  0  0  0  0  0  0  0  0
    0.7440   11.6160   -6.2470 C   0  0  0  0  0  0  0  0  0  0  0  0
    0.4310   12.1940   -5.0420 N   0  0  0  0  0  0  0  0  0  0  0  0
   -0.2400   10.5700   -6.6210 C   0  0  0  0  0  0  0  0  0  0  0  0
   -0.7660   11.3290   -4.2380 S   0  0  2  0  0  0  0  0  0  0  0  0
   -1.1440   10.3030   -5.5990 C   0  0  0  0  0  0  0  0  0  0  0  0
   -0.3160    9.8840   -7.8280 C   0  0  0  0  0  0  0  0  0  0  0  0
   -1.8510   12.4000   -4.0260 N   0  0  0  0  0  0  0  0  0  0  0  0
   -0.0760   10.5460   -3.2410 O   0  0  0  0  0  0  0  0  0  0  0  0
   -2.1490    9.3620   -5.7140 C   0  0  0  0  0  0  0  0  0  0  0  0
   -1.3260    8.9240   -7.9750 C   0  0  0  0  0  0  0  0  0  0  0  0
   -1.7210   13.3370   -2.8630 C   0  0  0  0  0  0  0  0  0  0  0  0
   -2.2350    8.6670   -6.9240 C   0  0  0  0  0  0  0  0  0  0  0  0
   -2.7730   14.4710   -2.9140 C   0  0  0  0  0  0  0  0  0  0  0  0
   -3.5780   14.6010   -1.6280 C   0  0  0  0  0  0  0  0  0  0  0  0
   -4.9300   14.5000   -1.7100 N   0  0  0  0  0  0  0  0  0  0  0  0
   -2.9250   14.8010   -0.4150 C   0  0  0  0  0  0  0  0  0  0  0  0
   -5.6780   14.5750   -0.6020 C   0  0  0  0  0  0  0  0  0  0  0  0
   -3.6900   14.8850    0.7480 C   0  0  0  0  0  0  0  0  0  0  0  0
   -7.0010   14.4610   -0.7290 N   0  0  0  0  0  0  0  0  0  0  0  0
   -5.0800   14.7630    0.6590 C   0  0  0  0  0  0  0  0  0  0  0  0
   -5.9040   14.8190    1.7930 C   0  0  0  0  0  0  0  0  0  0  0  0
   -7.7740   14.5150    0.3790 C   0  0  0  0  0  0  0  0  0  0  0  0
   -7.2770   14.6880    1.6530 C   0  0  0  0  0  0  0  0  0  0  0  0
  1  2  2  0
  2  3  1  0
  2  4  1  0
  5  3  1  6
  4  6  2  0
  5  6  1  0
  4  7  1  0
  5  8  2  0
  5  9  2  0
  6 10  1  0
  7 11  2  0
  8 12  1  0
 10 13  2  0
 11 13  1  0
 12 14  1  0
 14 15  1  0
 15 16  2  0
 15 17  1  0
 16 18  1  0
 17 19  2  0
 18 20  2  0
 18 21  1  0
 19 21  1  0
 21 22  2  0
 20 23  1  0
 22 24  1  0
 23 24  2  0
M  END
