mac-x0226-mac-x0123
     RDKit          3D

 30 34  0  0  0  0  0  0  0  0999 V2000
    1.4020   12.4460   -2.0370 O   0  0  0  0  0  0  0  0  0  0  0  0
    0.3530   11.7510   -2.6810 C   0  0  0  0  0  0  0  0  0  0  0  0
    0.4020   10.4120   -2.2070 O   0  0  0  0  0  0  0  0  0  0  0  0
   -0.9550   12.3980   -2.2230 C   0  0  0  0  0  0  0  0  0  0  0  0
    0.5500   11.7690   -4.1670 C   0  0  0  0  0  0  0  0  0  0  0  0
   -1.4680   13.4360   -3.2260 C   0  0  0  0  0  0  0  0  0  0  0  0
    1.4080   12.5820   -4.9430 C   0  0  0  0  0  0  0  0  0  0  0  0
   -0.0760   10.9750   -5.1030 C   0  0  0  0  0  0  0  0  0  0  0  0
   -2.0320   14.6910   -2.5650 C   0  0  0  0  0  0  0  0  0  0  0  0
    1.3260   12.3160   -6.2490 N   0  0  0  0  0  0  0  0  0  0  0  0
    0.4060   11.3150   -6.3430 N   0  0  0  0  0  0  0  0  0  0  0  0
    0.0360   10.7320   -7.5880 C   0  0  0  0  0  0  0  0  0  0  0  0
   -3.5090   14.7470   -2.6990 C   0  0  0  0  0  0  0  0  0  0  0  0
   -1.1090    9.9360   -7.6690 C   0  0  0  0  0  0  0  0  0  0  0  0
    0.7890   10.9290   -8.7400 C   0  0  0  0  0  0  0  0  0  0  0  0
   -4.9120   14.7870   -2.6290 N   0  0  0  0  0  0  0  0  0  0  0  0
   -3.3180   14.6660   -1.3190 N   0  0  0  0  0  0  0  0  0  0  0  0
   -1.4780    9.3570   -8.8880 C   0  0  0  0  0  0  0  0  0  0  0  0
    0.4270   10.3570   -9.9510 C   0  0  0  0  0  0  0  0  0  0  0  0
   -4.4490   14.6510   -0.5870 N   0  0  0  0  0  0  0  0  0  0  0  0
   -5.4550   14.7250   -1.4620 C   0  0  0  0  0  0  0  0  0  0  0  0
   -0.7080    9.5680  -10.0300 C   0  0  0  0  0  0  0  0  0  0  0  0
   -4.6520   14.5630    0.8170 C   0  0  0  0  0  0  0  0  0  0  0  0
   -6.7750   14.7210   -1.1070 N   0  0  0  0  0  0  0  0  0  0  0  0
   -3.5380   14.5040    1.6530 N   0  0  0  0  0  0  0  0  0  0  0  0
   -6.9800   14.6200    0.1570 C   0  0  0  0  0  0  0  0  0  0  0  0
   -5.9400   14.5220    1.2180 C   0  0  0  0  0  0  0  0  0  0  0  0
   -6.6120   14.3970    2.5300 C   0  0  0  0  0  0  0  0  0  0  0  0
   -8.3540   14.6040    0.7460 C   0  0  0  0  0  0  0  0  0  0  0  0
   -8.1150   14.3350    2.2330 C   0  0  0  0  0  0  0  0  0  0  0  0
  2  1  1  0
  2  3  1  0
  2  4  1  0
  2  5  1  0
  4  6  1  0
  5  7  1  0
  5  8  2  0
  6  9  1  0
  7 10  2  0
  8 11  1  0
 10 11  1  0
 11 12  1  0
  9 13  1  0
 12 14  2  0
 12 15  1  0
 13 16  1  0
 13 17  2  0
 14 18  1  0
 15 19  2  0
 17 20  1  0
 16 21  2  0
 20 21  1  0
 18 22  2  0
 19 22  1  0
 20 23  1  0
 21 24  1  0
 23 25  1  0
 24 26  2  0
 23 27  2  0
 26 27  1  0
 27 28  1  0
 26 29  1  0
 28 30  1  0
 29 30  1  0
M  END
