mac-x0137-diamond-x0844_0_A
     RDKit          3D

 18 20  0  0  0  0  0  0  0  0999 V2000
   -2.7790   12.8050   -3.8620 F   0  0  0  0  0  0  0  0  0  0  0  0
   -1.7620   13.4580   -4.4910 C   0  0  2  0  0  0  0  0  0  0  0  0
   -0.6440   12.4390   -4.7450 C   0  0  0  0  0  0  0  0  0  0  0  0
   -1.3390   14.6470   -3.6050 C   0  0  0  0  0  0  0  0  0  0  0  0
   -0.5970   14.2020   -2.4140 N   0  0  0  0  0  0  0  0  0  0  0  0
    0.0560   12.0360   -3.4520 C   0  0  0  0  0  0  0  0  0  0  0  0
    0.5160   13.2700   -2.6800 C   0  0  0  0  0  0  0  0  0  0  0  0
   -1.0030   14.4450   -1.0980 C   0  0  0  0  0  0  0  0  0  0  0  0
   -0.0800   14.3970   -0.1860 N   0  0  0  0  0  0  0  0  0  0  0  0
   -2.3800   14.7420   -0.6560 C   0  0  0  0  0  0  0  0  0  0  0  0
   -0.4060   14.6050    1.1280 C   0  0  0  0  0  0  0  0  0  0  0  0
   -2.6180   14.9520    0.7470 C   0  0  0  0  0  0  0  0  0  0  0  0
   -3.5880   14.9040   -1.1900 C   0  0  0  0  0  0  0  0  0  0  0  0
   -4.1000   14.8130   -2.9360 Br  0  0  0  0  0  0  0  0  0  0  0  0
   -1.5730   14.8640    1.6010 N   0  0  0  0  0  0  0  0  0  0  0  0
   -3.8290   15.2220    1.0940 N   0  0  0  0  0  0  0  0  0  0  0  0
   -4.5450   15.1820   -0.0790 C   0  0  0  0  0  0  0  0  0  0  0  0
   -5.7700   15.3200   -0.2120 O   0  0  0  0  0  0  0  0  0  0  0  0
  2  1  1  1
  2  3  1  0
  2  4  1  0
  4  5  1  0
  3  6  1  0
  5  7  1  0
  6  7  1  0
  5  8  1  0
  8  9  2  0
  8 10  1  0
  9 11  1  0
 10 12  1  0
 10 13  2  0
 13 14  1  0
 11 15  2  0
 12 15  1  0
 12 16  2  0
 13 17  1  0
 16 17  1  0
 17 18  2  0
M  END
