mac-x0348-diamond-x0962_0_A
     RDKit          3D

 23 25  0  0  0  0  0  0  0  0999 V2000
    0.7610   18.5680   -5.9000 C   0  0  0  0  0  0  0  0  0  0  0  0
    0.1190   17.3970   -5.3670 N   0  0  0  0  0  0  0  0  0  0  0  0
    0.7130   16.5000   -4.5240 C   0  0  0  0  0  0  0  0  0  0  0  0
   -1.1720   17.0100   -5.6340 C   0  0  0  0  0  0  0  0  0  0  0  0
   -0.2050   15.5130   -4.2430 C   0  0  0  0  0  0  0  0  0  0  0  0
   -1.3890   15.8290   -4.9450 C   0  0  0  0  0  0  0  0  0  0  0  0
   -2.1680   17.5810   -6.4190 C   0  0  0  0  0  0  0  0  0  0  0  0
   -0.1040   14.2990   -3.3750 C   0  0  1  0  0  0  0  0  0  0  0  0
   -2.6340   15.1830   -5.0400 C   0  0  0  0  0  0  0  0  0  0  0  0
   -3.3970   16.9180   -6.5110 C   0  0  0  0  0  0  0  0  0  0  0  0
    0.9840   13.2640   -3.6520 C   0  0  0  0  0  0  0  0  0  0  0  0
   -0.2000   14.7000   -1.9090 C   0  0  0  0  0  0  0  0  0  0  0  0
   -3.6300   15.7330   -5.8300 C   0  0  0  0  0  0  0  0  0  0  0  0
    0.7790   12.2240   -2.5800 C   0  0  0  0  0  0  0  0  0  0  0  0
   -1.5900   14.7380   -1.4510 C   0  0  0  0  0  0  0  0  0  0  0  0
    0.7760   12.4880   -1.3870 O   0  0  0  0  0  0  0  0  0  0  0  0
    0.5700   10.9760   -3.0270 O   0  0  0  0  0  0  0  0  0  0  0  0
   -2.6620   14.8050   -0.9590 C   0  0  0  0  0  0  0  0  0  0  0  0
   -3.8160   14.9150   -0.1870 C   0  0  0  0  0  0  0  0  0  0  0  0
   -3.7560   15.2040    1.1330 N   0  0  0  0  0  0  0  0  0  0  0  0
   -5.1480   14.7820   -0.4800 C   0  0  0  0  0  0  0  0  0  0  0  0
   -5.0250   15.2360    1.6000 C   0  0  0  0  0  0  0  0  0  0  0  0
   -5.8960   14.9810    0.6490 N   0  0  0  0  0  0  0  0  0  0  0  0
  1  2  1  0
  2  3  1  0
  2  4  1  0
  3  5  2  0
  4  6  2  0
  5  6  1  0
  4  7  1  0
  5  8  1  0
  6  9  1  0
  7 10  2  0
  8 11  1  1
  8 12  1  0
  9 13  2  0
 10 13  1  0
 11 14  1  0
 12 15  1  0
 14 16  2  0
 14 17  1  0
 15 18  3  0
 18 19  1  0
 19 20  1  0
 19 21  2  0
 20 22  1  0
 21 23  1  0
 22 23  2  0
M  END
