mac-x0394-diamond-x0844_0_A
     RDKit          3D

 21 22  0  0  0  0  0  0  0  0999 V2000
    0.9960   18.3140   -5.2320 Cl  0  0  0  0  0  0  0  0  0  0  0  0
    0.2800   16.7820   -4.9910 C   0  0  0  0  0  0  0  0  0  0  0  0
   -1.1070   16.6930   -5.0450 C   0  0  0  0  0  0  0  0  0  0  0  0
    1.0680   15.6570   -4.7500 C   0  0  0  0  0  0  0  0  0  0  0  0
    0.4630   14.4090   -4.5630 C   0  0  0  0  0  0  0  0  0  0  0  0
   -1.7280   15.4630   -4.8600 C   0  0  0  0  0  0  0  0  0  0  0  0
   -3.2330   15.3600   -4.9170 C   0  0  0  0  0  0  0  0  0  0  0  0
    1.2800   13.1690   -4.3010 C   0  0  0  0  0  0  0  0  0  0  0  0
   -0.9390   14.3280   -4.6210 C   0  0  0  0  0  0  0  0  0  0  0  0
    0.8670   12.4800   -3.0150 C   0  0  0  0  0  0  0  0  0  0  0  0
   -3.8280   14.6420   -3.6910 C   0  0  0  0  0  0  0  0  0  0  0  0
    0.2460   11.2920   -3.2280 O   0  0  0  0  0  0  0  0  0  0  0  0
    1.0410   12.9040   -1.8750 O   0  0  0  0  0  0  0  0  0  0  0  0
   -3.4340   15.2600   -2.4510 O   0  0  0  0  0  0  0  0  0  0  0  0
   -4.1680   14.7340   -1.3260 C   0  0  1  0  0  0  0  0  0  0  0  0
   -3.5190   15.0940   -0.0260 C   0  0  0  0  0  0  0  0  0  0  0  0
   -5.5980   15.2560   -1.3560 C   0  0  0  0  0  0  0  0  0  0  0  0
   -4.2520   15.1280    1.0950 C   0  0  0  0  0  0  0  0  0  0  0  0
   -6.3540   14.9150   -0.0920 C   0  0  0  0  0  0  0  0  0  0  0  0
   -7.5750   14.7250   -0.0650 O   0  0  0  0  0  0  0  0  0  0  0  0
   -5.5850   14.8360    1.0530 N   0  0  0  0  0  0  0  0  0  0  0  0
  1  2  1  0
  2  3  2  0
  2  4  1  0
  4  5  2  0
  3  6  1  0
  6  7  1  0
  5  8  1  0
  5  9  1  0
  6  9  2  0
  8 10  1  0
  7 11  1  0
 10 12  1  0
 10 13  2  0
 11 14  1  0
 15 14  1  6
 15 16  1  0
 15 17  1  0
 16 18  2  0
 17 19  1  0
 19 20  2  0
 18 21  1  0
 19 21  1  0
M  END
