mac-x0404-mac-x0282
     RDKit          3D

 26 29  0  0  0  0  0  0  0  0999 V2000
    2.3550   12.5120   -2.3000 O   0  0  0  0  0  0  0  0  0  0  0  0
    1.1640   12.4700   -3.0260 C   0  0  0  0  0  0  0  0  0  0  0  0
    0.5570   11.2050   -2.7820 O   0  0  0  0  0  0  0  0  0  0  0  0
    1.4400   12.6730   -4.5240 C   0  0  0  0  0  0  0  0  0  0  0  0
    0.3020   13.5870   -2.4740 C   0  0  0  0  0  0  0  0  0  0  0  0
    1.3270   14.0830   -4.7550 O   0  0  0  0  0  0  0  0  0  0  0  0
    0.8310   14.2630   -1.2110 C   0  0  0  0  0  0  0  0  0  0  0  0
    0.0220   14.5170   -4.8950 C   0  0  0  0  0  0  0  0  0  0  0  0
   -0.3840   14.4690   -0.3980 C   0  0  0  0  0  0  0  0  0  0  0  0
   -0.1720   15.8810   -5.1040 C   0  0  0  0  0  0  0  0  0  0  0  0
   -1.0610   13.6350   -4.8350 C   0  0  0  0  0  0  0  0  0  0  0  0
   -1.5210   14.7640   -1.1260 C   0  0  0  0  0  0  0  0  0  0  0  0
   -0.4630   14.3800    0.9950 C   0  0  0  0  0  0  0  0  0  0  0  0
   -1.4730   16.3880   -5.2660 C   0  0  0  0  0  0  0  0  0  0  0  0
   -2.3560   14.1380   -4.9900 C   0  0  0  0  0  0  0  0  0  0  0  0
    0.9110   16.7460   -5.1620 C   0  0  0  0  0  0  0  0  0  0  0  0
   -2.7020   14.9540   -0.4420 C   0  0  0  0  0  0  0  0  0  0  0  0
   -1.5950   14.5530    1.7150 N   0  0  0  0  0  0  0  0  0  0  0  0
   -2.5610   15.5060   -5.2040 C   0  0  0  0  0  0  0  0  0  0  0  0
   -1.6350   17.7590   -5.4890 C   0  0  0  0  0  0  0  0  0  0  0  0
    0.7490   18.1030   -5.3810 C   0  0  0  0  0  0  0  0  0  0  0  0
   -4.0240   15.2600   -0.8120 C   0  0  0  0  0  0  0  0  0  0  0  0
   -2.6580   14.8290    0.9380 C   0  0  0  0  0  0  0  0  0  0  0  0
   -0.5370   18.6070   -5.5470 C   0  0  0  0  0  0  0  0  0  0  0  0
   -4.7620   15.3030    0.3420 C   0  0  0  0  0  0  0  0  0  0  0  0
   -3.9230   15.0370    1.3930 N   0  0  0  0  0  0  0  0  0  0  0  0
  2  1  1  0
  2  3  1  0
  2  4  1  0
  2  5  1  0
  4  6  1  0
  5  7  1  0
  6  8  1  0
  7  9  1  0
  8 10  1  0
  8 11  2  0
  9 12  2  0
  9 13  1  0
 10 14  2  0
 11 15  1  0
 10 16  1  0
 12 17  1  0
 13 18  2  0
 14 19  1  0
 15 19  2  0
 14 20  1  0
 16 21  2  0
 17 22  1  0
 17 23  2  0
 18 23  1  0
 20 24  2  0
 21 24  1  0
 22 25  2  0
 23 26  1  0
 25 26  1  0
M  END
