mac-x0360-diamond-x0574_0_A
     RDKit          3D

 24 26  0  0  0  0  0  0  0  0999 V2000
   -8.5330   10.5390    1.5040 Cl  0  0  0  0  0  0  0  0  0  0  0  0
   -7.2230   10.8730    0.4540 C   0  0  0  0  0  0  0  0  0  0  0  0
   -6.9500   10.0880   -0.6750 C   0  0  0  0  0  0  0  0  0  0  0  0
   -6.4490   11.9340    0.7540 C   0  0  0  0  0  0  0  0  0  0  0  0
   -5.4160   12.2020   -0.0750 C   0  0  0  0  0  0  0  0  0  0  0  0
   -5.8620   10.4060   -1.5000 C   0  0  0  0  0  0  0  0  0  0  0  0
   -5.4840    9.4620   -2.8830 Cl  0  0  0  0  0  0  0  0  0  0  0  0
   -4.4970   13.5240    0.3030 S   0  0  1  0  0  0  0  0  0  0  0  0
   -5.0800   11.4840   -1.1990 C   0  0  0  0  0  0  0  0  0  0  0  0
   -2.8940   13.3030   -0.1910 N   0  0  0  0  0  0  0  0  0  0  0  0
   -4.8160   14.4380   -0.7780 O   0  0  0  0  0  0  0  0  0  0  0  0
   -4.4470   13.9490    1.7970 N   0  0  0  0  0  0  0  0  0  0  0  0
   -3.9550   14.7570    0.9040 C   0  0  0  0  0  0  0  0  0  0  0  0
   -4.8810   15.3000    0.0870 C   0  0  0  0  0  0  0  0  0  0  0  0
   -2.6450   14.8590    0.8450 C   0  0  0  0  0  0  0  0  0  0  0  0
   -6.2640   15.1150    0.2920 O   0  0  0  0  0  0  0  0  0  0  0  0
   -2.1220   15.5430   -0.1760 C   0  0  0  0  0  0  0  0  0  0  0  0
   -4.3930   15.9980   -0.9650 C   0  0  0  0  0  0  0  0  0  0  0  0
   -1.8350   14.2820    1.7490 N   0  0  0  0  0  0  0  0  0  0  0  0
   -6.5720   14.7190    1.6600 C   0  0  0  0  0  0  0  0  0  0  0  0
   -2.9830   16.1210   -1.1230 C   0  0  0  0  0  0  0  0  0  0  0  0
   -0.6620   14.5150    1.4360 C   0  0  0  0  0  0  0  0  0  0  0  0
   -0.4120   15.4620    0.0170 S   0  0  0  0  0  0  0  0  0  0  0  0
    0.2520   14.0270    2.2120 N   0  0  0  0  0  0  0  0  0  0  0  0
  1  2  1  0
  2  3  2  0
  2  4  1  0
  4  5  2  0
  3  6  1  0
  6  7  1  0
  5  8  1  0
  5  9  1  0
  6  9  2  0
  8 10  1  6
  8 11  2  0
  8 12  2  0
 12 13  1  0
 13 14  2  0
 13 15  1  0
 14 16  1  0
 15 17  2  0
 14 18  1  0
 15 19  1  0
 16 20  1  0
 17 21  1  0
 18 21  2  0
 19 22  2  0
 17 23  1  0
 22 23  1  0
 22 24  1  0
M  END
