mac-x0212-mac-x0385
     RDKit          3D

 15 15  0  0  0  0  0  0  0  0999 V2000
   -6.5370   12.7140    1.3850 C   0  0  0  0  0  0  0  0  0  0  0  0
   -6.9110   14.4240    1.0410 S   0  0  0  0  0  0  0  0  0  0  0  0
   -7.7730   14.9050    2.1020 O   0  0  0  0  0  0  0  0  0  0  0  0
   -7.3080   14.5580   -0.3430 O   0  0  0  0  0  0  0  0  0  0  0  0
   -5.4030   15.1350    1.3050 N   0  0  0  0  0  0  0  0  0  0  0  0
   -4.4230   15.0150    0.2750 C   0  0  0  0  0  0  0  0  0  0  0  0
   -3.0970   14.7490    0.6040 C   0  0  0  0  0  0  0  0  0  0  0  0
   -4.8000   15.1540   -1.0640 C   0  0  0  0  0  0  0  0  0  0  0  0
   -2.1010   14.6030   -0.3820 C   0  0  0  0  0  0  0  0  0  0  0  0
   -3.8400   15.0070   -2.0660 C   0  0  0  0  0  0  0  0  0  0  0  0
   -0.6800   14.3260    0.1020 C   0  0  0  0  0  0  0  0  0  0  0  0
   -2.4950   14.7250   -1.7450 C   0  0  0  0  0  0  0  0  0  0  0  0
   -1.5870   14.5760   -2.9130 C   0  0  0  0  0  0  0  0  0  0  0  0
   -0.4640   14.1050   -2.8680 O   0  0  0  0  0  0  0  0  0  0  0  0
   -2.1110   15.0000   -4.0740 O   0  0  0  0  0  0  0  0  0  0  0  0
  1  2  1  0
  2  3  2  0
  2  4  2  0
  2  5  1  0
  5  6  1  0
  6  7  2  0
  6  8  1  0
  7  9  1  0
  8 10  2  0
  9 11  1  0
  9 12  2  0
 10 12  1  0
 12 13  1  0
 13 14  2  0
 13 15  1  0
M  END
