mac-x0138-mac-x0303
     RDKit          3D

 20 22  0  0  0  0  0  0  0  0999 V2000
   -2.4430   14.6630   -3.4740 C   0  0  0  0  0  0  0  0  0  0  0  0
   -3.1000   14.2000   -2.2480 N   0  0  0  0  0  0  0  0  0  0  0  0
   -4.5440   14.5700   -2.1830 C   0  0  0  0  0  0  0  0  0  0  0  0
   -2.4910   14.8680   -1.1260 C   0  0  1  0  0  0  0  0  0  0  0  0
   -4.8510   14.6270   -0.6710 C   0  0  1  0  0  0  0  0  0  0  0  0
   -3.5910   15.2810   -0.1460 C   0  0  1  0  0  0  0  0  0  0  0  0
   -1.2920   14.2950   -0.5320 N   0  0  0  0  0  0  0  0  0  0  0  0
   -3.1880   14.7760    1.2130 C   0  0  2  0  0  0  0  0  0  0  0  0
   -0.8150   14.9190    0.6560 C   0  0  2  0  0  0  0  0  0  0  0  0
   -6.1490   15.3020   -0.2050 N   0  0  0  0  0  0  0  0  0  0  0  0
   -5.0470   13.3260    0.0070 C   0  0  0  0  0  0  0  0  0  0  0  0
   -4.0530   15.4190    2.1620 N   0  0  0  0  0  0  0  0  0  0  0  0
   -0.1150   13.9030    1.3470 N   0  0  0  0  0  0  0  0  0  0  0  0
   -1.8670   15.2170    1.5730 N   0  0  0  0  0  0  0  0  0  0  0  0
   -6.7280   14.4220    0.6290 C   0  0  0  0  0  0  0  0  0  0  0  0
   -6.0800   13.2440    0.7480 N   0  0  0  0  0  0  0  0  0  0  0  0
   -8.2850   14.6500    1.5840 S   0  0  0  0  0  0  0  0  0  0  0  0
   -8.5420   13.1190    2.2980 N   0  0  0  0  0  0  0  0  0  0  0  0
   -8.0680   15.5400    2.6990 O   0  0  0  0  0  0  0  0  0  0  0  0
   -9.3940   14.8060    0.6760 O   0  0  0  0  0  0  0  0  0  0  0  0
  1  2  1  0
  2  3  1  0
  2  4  1  0
  5  3  1  6
  4  6  1  0
  5  6  1  0
  4  7  1  1
  6  8  1  1
  7  9  1  0
  5 10  1  0
  5 11  1  0
  8 12  1  1
  9 13  1  1
  8 14  1  0
  9 14  1  0
 10 15  2  0
 11 16  2  0
 15 16  1  0
 15 17  1  0
 17 18  1  0
 17 19  2  0
 17 20  2  0
M  END
