mac-x0193-mac-x0397
     RDKit          3D

 28 30  0  0  0  0  0  0  0  0999 V2000
    0.2970   11.1730   -2.9630 O   0  0  0  0  0  0  0  0  0  0  0  0
    0.8140   12.2940   -3.5180 C   0  0  0  0  0  0  0  0  0  0  0  0
    1.1390   13.3600   -2.9150 N   0  0  0  0  0  0  0  0  0  0  0  0
    1.0170   12.3380   -5.0050 C   0  0  0  0  0  0  0  0  0  0  0  0
    0.2050   11.4060   -5.7490 N   0  0  0  0  0  0  0  0  0  0  0  0
    0.9580   13.5720   -1.5090 C   0  0  0  0  0  0  0  0  0  0  0  0
    0.7410   11.1820   -6.9590 C   0  0  0  0  0  0  0  0  0  0  0  0
   -0.0050   14.7460   -1.4120 C   0  0  0  0  0  0  0  0  0  0  0  0
    1.8130   11.6640   -7.1730 O   0  0  0  0  0  0  0  0  0  0  0  0
    0.0340   10.4190   -7.8380 N   0  0  0  0  0  0  0  0  0  0  0  0
   -1.0920   14.7410   -2.5190 C   0  0  0  0  0  0  0  0  0  0  0  0
    0.7260    9.9770   -9.0500 C   0  0  0  0  0  0  0  0  0  0  0  0
   -2.4660   14.8230   -1.9160 C   0  0  0  0  0  0  0  0  0  0  0  0
    1.3660    8.6130   -8.8100 C   0  0  0  0  0  0  0  0  0  0  0  0
   -0.1860    9.9650  -10.2790 C   0  0  0  0  0  0  0  0  0  0  0  0
   -3.6750   14.8160   -2.6350 C   0  0  0  0  0  0  0  0  0  0  0  0
   -2.4870   14.9130   -0.5410 C   0  0  0  0  0  0  0  0  0  0  0  0
    2.1300    8.1050  -10.0310 C   0  0  0  0  0  0  0  0  0  0  0  0
    0.5630    9.4830  -11.5180 C   0  0  0  0  0  0  0  0  0  0  0  0
   -3.6830   14.9810    0.1040 C   0  0  0  0  0  0  0  0  0  0  0  0
   -4.8820   14.8810   -1.9260 C   0  0  0  0  0  0  0  0  0  0  0  0
   -6.4180   14.8720   -2.6650 Cl  0  0  0  0  0  0  0  0  0  0  0  0
    1.2640    8.1390  -11.2860 C   0  0  0  0  0  0  0  0  0  0  0  0
   -4.9080   14.9530   -0.5340 C   0  0  0  0  0  0  0  0  0  0  0  0
   -3.8960   15.1090    1.7510 S   0  0  0  0  0  0  0  0  0  0  0  0
   -5.5960   15.0600    1.5400 C   0  0  0  0  0  0  0  0  0  0  0  0
   -6.0030   14.9980    0.3080 N   0  0  0  0  0  0  0  0  0  0  0  0
   -6.4320   15.0860    2.5870 N   0  0  0  0  0  0  0  0  0  0  0  0
  1  2  1  0
  2  3  2  3
  2  4  1  0
  4  5  1  0
  3  6  1  0
  5  7  1  0
  6  8  1  0
  7  9  2  0
  7 10  1  0
  8 11  1  0
 10 12  1  0
 11 13  1  0
 12 14  1  0
 12 15  1  0
 13 16  2  0
 13 17  1  0
 14 18  1  0
 15 19  1  0
 17 20  2  0
 16 21  1  0
 21 22  1  0
 18 23  1  0
 19 23  1  0
 20 24  1  0
 21 24  2  0
 20 25  1  0
 25 26  1  0
 24 27  1  0
 26 27  2  0
 26 28  1  0
M  END
