mac-x0319-mac-x0371
     RDKit          3D

 13 13  0  0  0  0  0  0  0  0999 V2000
    0.4120   10.2150   -2.4360 O   0  0  0  0  0  0  0  0  0  0  0  0
    0.5380   11.5520   -2.5340 C   0  0  0  0  0  0  0  0  0  0  0  0
    0.5560   12.2430   -1.5250 O   0  0  0  0  0  0  0  0  0  0  0  0
    0.6260   11.9860   -3.9780 C   0  0  0  0  0  0  0  0  0  0  0  0
    0.1530   13.3890   -4.1590 C   0  0  0  0  0  0  0  0  0  0  0  0
    1.0540   14.4140   -4.0580 C   0  0  0  0  0  0  0  0  0  0  0  0
   -1.1750   13.6690   -4.4150 C   0  0  0  0  0  0  0  0  0  0  0  0
    2.6440   13.8770   -3.7300 Cl  0  0  0  0  0  0  0  0  0  0  0  0
    0.6440   15.7580   -4.2140 C   0  0  0  0  0  0  0  0  0  0  0  0
   -1.5880   14.9750   -4.5670 C   0  0  0  0  0  0  0  0  0  0  0  0
    1.4550   16.8490   -4.1230 O   0  0  0  0  0  0  0  0  0  0  0  0
   -3.2440   15.2300   -4.8680 Cl  0  0  0  0  0  0  0  0  0  0  0  0
   -0.6910   16.0360   -4.4720 C   0  0  0  0  0  0  0  0  0  0  0  0
  1  2  1  0
  2  3  2  0
  2  4  1  0
  4  5  1  0
  5  6  2  0
  5  7  1  0
  6  8  1  0
  6  9  1  0
  7 10  2  0
  9 11  1  0
 10 12  1  0
  9 13  2  0
 10 13  1  0
M  END
