mac-x0326-mac-x0412
     RDKit          3D

 21 23  0  0  0  0  0  0  0  0999 V2000
   -6.2480   15.8450   -1.4380 Cl  0  0  0  0  0  0  0  0  0  0  0  0
   -4.7270   14.9090   -1.5010 C   0  0  1  0  0  0  0  0  0  0  0  0
   -3.8100   15.2960   -2.6750 C   0  0  0  0  0  0  0  0  0  0  0  0
   -4.1540   14.5350   -0.0790 C   0  0  2  0  0  0  0  0  0  0  0  0
   -2.3990   14.9110   -2.4950 C   0  0  0  0  0  0  0  0  0  0  0  0
   -2.6240   14.1610   -0.0620 C   0  0  0  0  0  0  0  0  0  0  0  0
   -5.1140   13.3750    0.2290 C   0  0  0  0  0  0  0  0  0  0  0  0
   -4.2710   15.4240    1.1700 C   0  0  0  0  0  0  0  0  0  0  0  0
   -1.5110   15.0420   -3.5380 N   0  0  0  0  0  0  0  0  0  0  0  0
   -1.8820   14.4190   -1.3280 C   0  0  0  0  0  0  0  0  0  0  0  0
   -6.4470   13.9670    0.6380 C   0  0  0  0  0  0  0  0  0  0  0  0
   -5.2910   15.3520    2.0540 C   0  0  0  0  0  0  0  0  0  0  0  0
   -7.4810   13.9940   -0.0420 O   0  0  0  0  0  0  0  0  0  0  0  0
   -0.3160   14.6510   -3.1510 C   0  0  0  0  0  0  0  0  0  0  0  0
   -0.2150   14.1190   -1.5110 S   0  0  0  0  0  0  0  0  0  0  0  0
   -6.3440   14.5170    1.8580 N   0  0  0  0  0  0  0  0  0  0  0  0
    0.8880   14.6500   -4.0510 C   0  0  0  0  0  0  0  0  0  0  0  0
    1.2100   13.2270   -4.5090 C   0  0  0  0  0  0  0  0  0  0  0  0
    1.1610   12.2850   -3.3430 C   0  0  0  0  0  0  0  0  0  0  0  0
    0.4190   11.1870   -3.5850 O   0  0  0  0  0  0  0  0  0  0  0  0
    1.7120   12.4380   -2.2690 O   0  0  0  0  0  0  0  0  0  0  0  0
  2  1  1  1
  2  3  1  0
  2  4  1  0
  3  5  1  0
  4  6  1  6
  4  7  1  0
  4  8  1  0
  5  9  1  0
  5 10  2  0
  6 10  1  0
  7 11  1  0
  8 12  2  0
 11 13  2  0
  9 14  2  0
 10 15  1  0
 14 15  1  0
 11 16  1  0
 12 16  1  0
 14 17  1  0
 17 18  1  0
 18 19  1  0
 19 20  1  0
 19 21  2  0
M  END
