mac-x0305-diamond-x0592_0_A
     RDKit          3D

 20 21  0  0  0  0  0  0  0  0999 V2000
   -0.0460   12.7200   -0.9520 O   0  0  0  0  0  0  0  0  0  0  0  0
   -0.2560   13.7540   -1.7890 C   0  0  0  0  0  0  0  0  0  0  0  0
    0.6440   14.1100   -2.5270 O   0  0  0  0  0  0  0  0  0  0  0  0
   -1.6090   14.3700   -1.7400 C   0  0  0  0  0  0  0  0  0  0  0  0
   -2.4180   14.5570   -0.6430 C   0  0  0  0  0  0  0  0  0  0  0  0
   -2.0450   14.7860   -2.9610 N   0  0  0  0  0  0  0  0  0  0  0  0
   -2.3180   14.2820    0.6510 O   0  0  0  0  0  0  0  0  0  0  0  0
   -3.6480   15.1720   -0.7690 C   0  0  0  0  0  0  0  0  0  0  0  0
   -3.2550   15.3760   -3.0510 C   0  0  0  0  0  0  0  0  0  0  0  0
   -3.3200   15.2180    0.8220 C   0  0  0  0  0  0  0  0  0  0  0  0
   -4.0870   15.5920   -1.9840 C   0  0  0  0  0  0  0  0  0  0  0  0
   -3.0650   16.3250    1.1670 O   0  0  0  0  0  0  0  0  0  0  0  0
   -4.7050   14.8910    0.4370 C   0  0  0  0  0  0  0  0  0  0  0  0
   -5.3140   14.6880   -0.8430 C   0  0  0  0  0  0  0  0  0  0  0  0
   -5.7540   14.7290    1.3060 C   0  0  0  0  0  0  0  0  0  0  0  0
   -6.6220   14.4380   -0.7720 N   0  0  0  0  0  0  0  0  0  0  0  0
   -6.8630   14.4730    0.5480 N   0  0  0  0  0  0  0  0  0  0  0  0
   -8.2040   14.2530    1.0480 C   0  0  0  0  0  0  0  0  0  0  0  0
   -8.1850   13.9750    2.5460 C   0  0  0  0  0  0  0  0  0  0  0  0
   -7.4300   14.9490    3.2620 O   0  0  0  0  0  0  0  0  0  0  0  0
  1  2  1  0
  2  3  2  0
  2  4  1  0
  4  5  2  0
  4  6  1  0
  5  7  1  0
  5  8  1  0
  6  9  2  0
  7 10  1  0
  8 11  2  0
  9 11  1  0
 10 12  2  0
 10 13  1  0
 13 14  1  0
 13 15  2  0
 14 16  2  0
 15 17  1  0
 16 17  1  0
 17 18  1  0
 18 19  1  0
 19 20  1  0
M  END
