mac-x0387-diamond-x0253_0_A
     RDKit          3D

 26 28  0  0  0  0  0  0  0  0999 V2000
   -3.9880   15.0400    1.5870 N   0  0  0  0  0  0  0  0  0  0  0  0
   -2.6980   14.8430    1.1000 C   0  0  0  0  0  0  0  0  0  0  0  0
   -1.7440   14.6350    2.0230 N   0  0  0  0  0  0  0  0  0  0  0  0
   -2.4430   14.8750   -0.2700 C   0  0  0  0  0  0  0  0  0  0  0  0
   -1.1050   14.7020   -0.6700 C   0  0  0  0  0  0  0  0  0  0  0  0
   -0.4830   14.4610    1.6050 C   0  0  0  0  0  0  0  0  0  0  0  0
   -3.4420   15.0750   -1.2500 C   0  0  0  0  0  0  0  0  0  0  0  0
   -0.1320   14.4950    0.2960 C   0  0  0  0  0  0  0  0  0  0  0  0
   -0.7740   14.7460   -2.0130 C   0  0  0  0  0  0  0  0  0  0  0  0
   -3.1180   15.1020   -2.6040 C   0  0  0  0  0  0  0  0  0  0  0  0
    0.6820   14.5930   -2.3840 C   0  0  0  0  0  0  0  0  0  0  0  0
   -1.7820   14.9400   -2.9910 C   0  0  0  0  0  0  0  0  0  0  0  0
    0.8690   13.6750   -3.4500 N   0  0  0  0  0  0  0  0  0  0  0  0
    0.4840   12.4910   -3.3380 C   0  0  0  0  0  0  0  0  0  0  0  0
   -0.0760   12.0450   -2.1980 O   0  0  0  0  0  0  0  0  0  0  0  0
    0.5680   11.4900   -4.3830 C   0  0  0  0  0  0  0  0  0  0  0  0
    0.1660   12.0140   -5.6600 N   0  0  0  0  0  0  0  0  0  0  0  0
    0.9680   11.7510   -6.7220 C   0  0  0  0  0  0  0  0  0  0  0  0
    2.1190   12.1400   -6.7220 O   0  0  0  0  0  0  0  0  0  0  0  0
    0.3800   10.9060   -7.8110 C   0  0  0  0  0  0  0  0  0  0  0  0
   -0.7580   10.1690   -7.4810 C   0  0  0  0  0  0  0  0  0  0  0  0
    0.8940   10.7980   -9.1070 C   0  0  0  0  0  0  0  0  0  0  0  0
   -1.3700    9.3190   -8.3980 C   0  0  0  0  0  0  0  0  0  0  0  0
    0.2860    9.9590  -10.0360 C   0  0  0  0  0  0  0  0  0  0  0  0
   -2.5750    8.5200   -8.0020 C   0  0  0  0  0  0  0  0  0  0  0  0
   -0.8390    9.2180   -9.6830 C   0  0  0  0  0  0  0  0  0  0  0  0
  1  2  1  0
  2  3  2  0
  2  4  1  0
  4  5  2  0
  3  6  1  0
  4  7  1  0
  5  8  1  0
  6  8  2  0
  5  9  1  0
  7 10  2  0
  9 11  1  0
  9 12  2  0
 10 12  1  0
 11 13  1  0
 13 14  2  3
 14 15  1  0
 14 16  1  0
 16 17  1  0
 17 18  1  0
 18 19  2  0
 18 20  1  0
 20 21  2  0
 20 22  1  0
 21 23  1  0
 22 24  2  0
 23 25  1  0
 23 26  2  0
 24 26  1  0
M  END
