mac-x0453-diamond-x0689_0_A
     RDKit          3D

 15 16  0  0  0  0  0  0  0  0999 V2000
   -6.8610   14.1490    2.2890 N   0  0  0  0  0  0  0  0  0  0  0  0
   -5.8380   13.6790    1.3230 C   0  0  0  0  0  0  0  0  0  0  0  0
   -4.7920   14.7740    0.9160 C   0  0  1  0  0  0  0  0  0  0  0  0
   -3.6590   14.8680    1.8360 N   0  0  0  0  0  0  0  0  0  0  0  0
   -4.3000   14.6710   -0.4880 C   0  0  0  0  0  0  0  0  0  0  0  0
   -3.3310   13.8100   -0.9570 C   0  0  0  0  0  0  0  0  0  0  0  0
   -4.7600   15.4620   -1.5080 N   0  0  0  0  0  0  0  0  0  0  0  0
   -2.4060   14.7270    1.2560 C   0  0  0  0  0  0  0  0  0  0  0  0
   -3.1980   14.0960   -2.2800 N   0  0  0  0  0  0  0  0  0  0  0  0
   -4.0770   15.0950   -2.5670 C   0  0  0  0  0  0  0  0  0  0  0  0
   -2.3060   14.8650   -0.0790 N   0  0  0  0  0  0  0  0  0  0  0  0
   -1.3740   14.4650    2.0140 N   0  0  0  0  0  0  0  0  0  0  0  0
   -1.0810   14.7180   -0.6290 C   0  0  0  0  0  0  0  0  0  0  0  0
   -0.1910   14.3280    1.4450 C   0  0  0  0  0  0  0  0  0  0  0  0
    0.0360   14.4450    0.1000 C   0  0  0  0  0  0  0  0  0  0  0  0
  1  2  1  0
  3  2  1  1
  3  4  1  0
  3  5  1  0
  5  6  2  0
  5  7  1  0
  4  8  1  0
  6  9  1  0
  7 10  2  0
  9 10  1  0
  8 11  2  0
  8 12  1  0
 11 13  1  0
 12 14  2  0
 13 15  2  0
 14 15  1  0
M  END
