mac-x0190-mac-x0404
     RDKit          3D

 28 31  0  0  0  0  0  0  0  0999 V2000
   -9.3020   15.4110    2.1590 O   0  0  0  0  0  0  0  0  0  0  0  0
   -8.4680   14.2620    2.1880 C   0  0  0  0  0  0  0  0  0  0  0  0
   -7.3450   14.4880    1.2540 C   0  0  0  0  0  0  0  0  0  0  0  0
   -7.5210   14.3700   -0.0850 N   0  0  0  0  0  0  0  0  0  0  0  0
   -6.0890   14.8100    1.5330 N   0  0  0  0  0  0  0  0  0  0  0  0
   -6.3310   14.6130   -0.6880 C   0  0  0  0  0  0  0  0  0  0  0  0
   -5.4390   14.8910    0.3230 C   0  0  0  0  0  0  0  0  0  0  0  0
   -6.0130   14.5960   -2.0160 C   0  0  0  0  0  0  0  0  0  0  0  0
   -4.1020   15.1910   -0.0240 C   0  0  0  0  0  0  0  0  0  0  0  0
   -4.7220   14.8630   -2.4030 C   0  0  0  0  0  0  0  0  0  0  0  0
   -3.7470   15.1730   -1.4050 C   0  0  0  0  0  0  0  0  0  0  0  0
   -4.5220   14.7580   -3.9270 C   0  0  0  0  0  0  0  0  0  0  0  0
   -3.6370   15.6580   -4.7920 C   0  0  0  0  0  0  0  0  0  0  0  0
   -2.2590   15.2280   -4.9110 C   0  0  0  0  0  0  0  0  0  0  0  0
   -1.2560   16.1770   -5.0710 C   0  0  0  0  0  0  0  0  0  0  0  0
   -1.9850   13.8840   -4.8350 C   0  0  0  0  0  0  0  0  0  0  0  0
    0.0530   15.7160   -5.1040 C   0  0  0  0  0  0  0  0  0  0  0  0
   -0.6970   13.4290   -4.8700 C   0  0  0  0  0  0  0  0  0  0  0  0
   -1.4930   17.5630   -5.1980 C   0  0  0  0  0  0  0  0  0  0  0  0
    0.3270   14.3370   -4.9850 C   0  0  0  0  0  0  0  0  0  0  0  0
   -0.4560   18.4650   -5.3560 C   0  0  0  0  0  0  0  0  0  0  0  0
    1.0690   16.6370   -5.2530 C   0  0  0  0  0  0  0  0  0  0  0  0
    1.6330   13.9760   -4.9900 O   0  0  0  0  0  0  0  0  0  0  0  0
    0.8440   18.0040   -5.3810 C   0  0  0  0  0  0  0  0  0  0  0  0
    1.9740   12.7120   -4.4590 C   0  0  0  0  0  0  0  0  0  0  0  0
    1.2470   12.2280   -3.1970 C   0  0  0  0  0  0  0  0  0  0  0  0
    1.2940   13.0730   -2.1500 O   0  0  0  0  0  0  0  0  0  0  0  0
    0.6650   11.1620   -3.0760 O   0  0  0  0  0  0  0  0  0  0  0  0
  1  2  1  0
  2  3  1  0
  3  4  1  0
  3  5  2  0
  4  6  1  0
  5  7  1  0
  6  7  2  0
  6  8  1  0
  7  9  1  0
  8 10  2  0
  9 11  2  0
 10 11  1  0
 10 12  1  0
 12 13  1  0
 13 14  1  0
 14 15  1  0
 14 16  2  0
 15 17  2  0
 16 18  1  0
 15 19  1  0
 17 20  1  0
 18 20  2  0
 19 21  2  0
 17 22  1  0
 20 23  1  0
 21 24  1  0
 22 24  2  0
 23 25  1  0
 25 26  1  0
 26 27  1  0
 26 28  2  0
M  END
