mac-x0138-mac-x0555
     RDKit          3D

 18 20  0  0  0  0  0  0  0  0999 V2000
   -2.3180   15.2100   -3.4500 C   0  0  0  0  0  0  0  0  0  0  0  0
   -2.6530   14.5350   -2.1940 N   0  0  0  0  0  0  0  0  0  0  0  0
   -4.0540   14.1060   -2.0160 C   0  0  0  0  0  0  0  0  0  0  0  0
   -2.2260   15.2860   -1.0440 C   0  0  1  0  0  0  0  0  0  0  0  0
   -4.6900   14.7950   -0.7710 C   0  0  2  0  0  0  0  0  0  0  0  0
   -3.4550   15.5130   -0.1290 C   0  0  1  0  0  0  0  0  0  0  0  0
   -1.1520   14.4960   -0.5350 N   0  0  0  0  0  0  0  0  0  0  0  0
   -3.1170   15.1100    1.2890 C   0  0  1  0  0  0  0  0  0  0  0  0
   -0.7070   14.8560    0.7380 C   0  0  2  0  0  0  0  0  0  0  0  0
   -5.2800   13.8140    0.3720 C   0  0  0  0  0  0  0  0  0  0  0  0
   -5.8400   15.6430   -1.2940 C   0  0  0  0  0  0  0  0  0  0  0  0
   -3.3210   13.7250    1.5330 N   0  0  0  0  0  0  0  0  0  0  0  0
   -0.0320   13.7610    1.3240 N   0  0  0  0  0  0  0  0  0  0  0  0
   -1.7290   15.2190    1.6340 N   0  0  0  0  0  0  0  0  0  0  0  0
   -6.7630   13.9450    0.8980 C   0  0  1  0  0  0  0  0  0  0  0  0
   -7.1100   14.9230   -1.3820 N   0  0  0  0  0  0  0  0  0  0  0  0
   -6.8870   14.5470    2.2390 N   0  0  0  0  0  0  0  0  0  0  0  0
   -7.7160   14.6150   -0.0950 C   0  0  0  0  0  0  0  0  0  0  0  0
  1  2  1  0
  2  3  1  0
  2  4  1  0
  5  3  1  6
  4  6  1  0
  5  6  1  0
  4  7  1  1
  6  8  1  1
  7  9  1  0
  5 10  1  0
  5 11  1  0
  8 12  1  6
  9 13  1  1
  8 14  1  0
  9 14  1  0
 10 15  1  0
 11 16  1  0
 15 17  1  1
 15 18  1  0
 16 18  1  0
M  END
