mac-x0392-mac-x0472
     RDKit          3D

 18 19  0  0  0  0  0  0  0  0999 V2000
    0.3340   13.8080   -0.1440 N   0  0  0  0  0  0  0  0  0  0  0  0
   -0.9860   14.2750    0.0180 C   0  0  0  0  0  0  0  0  0  0  0  0
   -1.5950   14.3950    1.2560 C   0  0  0  0  0  0  0  0  0  0  0  0
   -1.7800   14.6480   -1.0650 C   0  0  0  0  0  0  0  0  0  0  0  0
   -1.2920   14.5850   -2.4370 C   0  0  0  0  0  0  0  0  0  0  0  0
   -3.0930   15.1070   -0.8910 C   0  0  0  0  0  0  0  0  0  0  0  0
   -2.8690   14.8380    1.4540 N   0  0  0  0  0  0  0  0  0  0  0  0
   -1.9390   14.4830   -3.5320 N   0  0  0  0  0  0  0  0  0  0  0  0
    0.0560   14.6540   -2.4810 O   0  0  0  0  0  0  0  0  0  0  0  0
   -3.5850   15.1830    0.3780 C   0  0  0  0  0  0  0  0  0  0  0  0
   -3.6560   14.4010   -3.5260 S   0  0  0  0  0  0  0  0  0  0  0  0
   -4.2050   15.5580   -2.7320 O   0  0  0  0  0  0  0  0  0  0  0  0
   -4.2660   12.8410   -2.8090 C   0  0  0  0  0  0  0  0  0  0  0  0
   -3.5480   11.6570   -2.9990 C   0  0  0  0  0  0  0  0  0  0  0  0
   -5.4620   12.8200   -2.0790 C   0  0  0  0  0  0  0  0  0  0  0  0
   -4.0310   10.4600   -2.4740 C   0  0  0  0  0  0  0  0  0  0  0  0
   -5.9410   11.6200   -1.5550 C   0  0  0  0  0  0  0  0  0  0  0  0
   -5.2300   10.4470   -1.7600 C   0  0  0  0  0  0  0  0  0  0  0  0
  1  2  1  0
  2  3  2  0
  2  4  1  0
  4  5  1  0
  4  6  2  0
  3  7  1  0
  5  8  2  3
  5  9  1  0
  6 10  1  0
  7 10  2  0
 11  8  1  1
 11 12  2  0
 11 13  1  0
 13 14  2  0
 13 15  1  0
 14 16  1  0
 15 17  2  0
 16 18  2  0
 17 18  1  0
M  END
