mac-x0572-mac-x0301
     RDKit          3D

 23 26  0  0  0  0  0  0  0  0999 V2000
   -8.2730   14.8340    3.2760 C   0  0  0  0  0  0  0  0  0  0  0  0
   -7.3770   14.2450    2.1810 C   0  0  2  0  0  0  0  0  0  0  0  0
   -6.1390   15.0110    2.2230 N   0  0  0  0  0  0  0  0  0  0  0  0
   -8.0870   14.0920    0.8180 C   0  0  1  0  0  0  0  0  0  0  0  0
   -9.3640   14.7130    0.8200 O   0  0  0  0  0  0  0  0  0  0  0  0
   -7.2580   14.5410   -0.3920 C   0  0  0  0  0  0  0  0  0  0  0  0
   -5.2520   14.7520    1.1210 C   0  0  1  0  0  0  0  0  0  0  0  0
   -7.7330   14.4360   -1.5220 O   0  0  0  0  0  0  0  0  0  0  0  0
   -5.8710   15.1040   -0.2090 C   0  0  1  0  0  0  0  0  0  0  0  0
   -3.9580   15.5330    1.3390 C   0  0  0  0  0  0  0  0  0  0  0  0
   -3.0750   15.6590    0.0900 C   0  0  2  0  0  0  0  0  0  0  0  0
   -4.9550   14.6260   -1.2920 C   0  0  0  0  0  0  0  0  0  0  0  0
   -3.7090   15.4790   -1.3050 C   0  0  2  0  0  0  0  0  0  0  0  0
   -1.9160   14.7500    0.2020 C   0  0  1  0  0  0  0  0  0  0  0  0
   -0.8430   15.2270   -0.7180 C   0  0  2  0  0  0  0  0  0  0  0  0
   -2.7610   14.9570   -2.3890 C   0  0  0  0  0  0  0  0  0  0  0  0
   -1.2600   14.7620    1.4680 O   0  0  0  0  0  0  0  0  0  0  0  0
   -1.2890   15.3130   -2.1950 C   0  0  2  0  0  0  0  0  0  0  0  0
    0.1210   14.2370   -0.3870 O   0  0  0  0  0  0  0  0  0  0  0  0
    0.0500   14.3960    1.0600 C   0  0  0  0  0  0  0  0  0  0  0  0
   -0.4790   14.4820   -3.1730 C   0  0  0  0  0  0  0  0  0  0  0  0
    0.8200   14.3480   -2.8480 O   0  0  0  0  0  0  0  0  0  0  0  0
   -0.9480   13.9790   -4.1840 O   0  0  0  0  0  0  0  0  0  0  0  0
  2  1  1  1
  2  3  1  0
  2  4  1  0
  4  5  1  1
  4  6  1  0
  3  7  1  0
  6  8  2  0
  6  9  1  0
  7  9  1  0
  7 10  1  1
 11 10  1  1
  9 12  1  6
 11 13  1  0
 13 12  1  1
 11 14  1  0
 14 15  1  0
 13 16  1  0
 14 17  1  1
 15 18  1  0
 16 18  1  0
 15 19  1  6
 17 20  1  0
 19 20  1  0
 18 21  1  6
 21 22  1  0
 21 23  2  0
M  END
