mac-x0306-mac-x0453
     RDKit          3D

 14 15  0  0  0  0  0  0  0  0999 V2000
   -6.4010   13.2260    2.5900 N   0  0  0  0  0  0  0  0  0  0  0  0
   -5.1700   13.0690    1.8090 C   0  0  0  0  0  0  0  0  0  0  0  0
   -4.3890   14.3840    1.5780 C   0  0  0  0  0  0  0  0  0  0  0  0
   -4.3720   14.7200    0.1130 C   0  0  0  0  0  0  0  0  0  0  0  0
   -3.1780   14.8300   -0.5960 C   0  0  0  0  0  0  0  0  0  0  0  0
   -5.5610   14.9180   -0.5730 C   0  0  0  0  0  0  0  0  0  0  0  0
   -6.8290   14.7970    0.1430 C   0  0  0  0  0  0  0  0  0  0  0  0
   -5.5170   15.2200   -1.9370 C   0  0  0  0  0  0  0  0  0  0  0  0
   -3.1090   15.1130   -1.9180 N   0  0  0  0  0  0  0  0  0  0  0  0
   -6.8930   14.7890    1.5200 N   0  0  0  0  0  0  0  0  0  0  0  0
   -8.0410   14.6830   -0.3530 N   0  0  0  0  0  0  0  0  0  0  0  0
   -4.2800   15.3030   -2.5530 C   0  0  0  0  0  0  0  0  0  0  0  0
   -8.8890   14.6010    0.7210 C   0  0  0  0  0  0  0  0  0  0  0  0
   -8.1930   14.6660    1.8980 C   0  0  0  0  0  0  0  0  0  0  0  0
  1  2  1  0
  2  3  1  0
  3  4  1  0
  4  5  2  0
  4  6  1  0
  6  7  1  0
  6  8  2  0
  5  9  1  0
  7 10  1  0
  7 11  2  0
  8 12  1  0
  9 12  2  0
 11 13  1  0
 10 14  1  0
 13 14  2  0
M  END
