mac-x0115-mac-x0204
     RDKit          3D

 26 28  0  0  0  0  0  0  0  0999 V2000
   -1.1560   18.0600   -5.5770 C   0  0  0  0  0  0  0  0  0  0  0  0
    0.2370   17.4160   -5.6140 C   0  0  0  0  0  0  0  0  0  0  0  0
    1.0180   18.0350   -4.5350 C   0  0  0  0  0  0  0  0  0  0  0  0
    0.1700   16.0610   -5.6720 O   0  0  0  0  0  0  0  0  0  0  0  0
    1.0690   15.2800   -4.8320 C   0  0  0  0  0  0  0  0  0  0  0  0
    0.1880   15.2200   -3.4670 S   0  0  0  0  0  0  0  0  0  0  0  0
    1.1690   15.3840   -2.4950 O   0  0  0  0  0  0  0  0  0  0  0  0
   -0.3320   16.7110   -3.0070 O   0  0  0  0  0  0  0  0  0  0  0  0
   -0.1870   14.1010   -2.3640 N   0  0  0  0  0  0  0  0  0  0  0  0
   -1.1260   14.7400   -4.2530 C   0  0  0  0  0  0  0  0  0  0  0  0
    0.8510   13.9610   -1.4640 C   0  0  0  0  0  0  0  0  0  0  0  0
   -1.4410   14.5140   -1.8460 C   0  0  0  0  0  0  0  0  0  0  0  0
   -1.9920   15.5630   -4.8920 C   0  0  0  0  0  0  0  0  0  0  0  0
   -1.4880   13.3780   -4.3620 C   0  0  0  0  0  0  0  0  0  0  0  0
    2.4490   13.7300   -1.8980 S   0  0  0  0  0  0  0  0  0  0  0  0
    0.5760   14.0610   -0.0500 N   0  0  0  0  0  0  0  0  0  0  0  0
   -1.4870   15.2600   -0.5100 C   0  0  2  0  0  0  0  0  0  0  0  0
   -2.7010   14.4760   -2.2030 C   0  0  0  0  0  0  0  0  0  0  0  0
   -3.0920   15.1840   -5.5790 C   0  0  0  0  0  0  0  0  0  0  0  0
   -2.5700   12.9660   -5.0280 N   0  0  0  0  0  0  0  0  0  0  0  0
   -3.8780   16.1630   -6.1960 O   0  0  0  0  0  0  0  0  0  0  0  0
   -0.6390   14.6090    0.4720 C   0  0  0  0  0  0  0  0  0  0  0  0
   -2.8270   15.5340   -0.2710 N   0  0  0  0  0  0  0  0  0  0  0  0
   -3.5670   15.1120   -1.2270 C   0  0  0  0  0  0  0  0  0  0  0  0
   -3.3320   13.8670   -5.6130 C   0  0  0  0  0  0  0  0  0  0  0  0
   -0.9900   14.5680    1.6740 O   0  0  0  0  0  0  0  0  0  0  0  0
  1  2  1  0
  2  3  1  0
  2  4  1  0
  4  5  1  0
  5  6  1  0
  6  7  1  0
  6  8  2  0
  6  9  1  0
  6 10  1  0
  9 11  1  0
  9 12  1  0
 10 13  2  0
 10 14  1  0
 11 15  2  0
 11 16  1  0
 12 17  1  0
 12 18  2  0
 13 19  1  0
 14 20  2  0
 19 21  1  0
 16 22  1  0
 17 22  1  0
 17 23  1  1
 18 24  1  0
 23 24  2  0
 19 25  2  0
 20 25  1  0
 22 26  2  0
M  END
