mac-x0321-mac-x0437
     RDKit          3D

 25 27  0  0  0  0  0  0  0  0999 V2000
   -4.4150   15.3210    1.7500 Cl  0  0  0  0  0  0  0  0  0  0  0  0
   -4.3780   15.2500    0.0410 C   0  0  0  0  0  0  0  0  0  0  0  0
   -3.1690   15.0050   -0.5920 C   0  0  0  0  0  0  0  0  0  0  0  0
   -5.5460   15.4360   -0.6940 C   0  0  0  0  0  0  0  0  0  0  0  0
   -3.1220   14.9480   -1.9830 C   0  0  0  0  0  0  0  0  0  0  0  0
   -5.5060   15.3810   -2.0800 C   0  0  0  0  0  0  0  0  0  0  0  0
   -1.8560   14.6920   -2.7140 C   0  0  0  0  0  0  0  0  0  0  0  0
   -4.2960   15.1380   -2.7270 C   0  0  0  0  0  0  0  0  0  0  0  0
   -0.8700   14.3530   -1.8470 O   0  0  0  0  0  0  0  0  0  0  0  0
   -1.7540   14.7880   -3.9250 O   0  0  0  0  0  0  0  0  0  0  0  0
    0.4580   14.4430   -2.3680 C   0  0  0  0  0  0  0  0  0  0  0  0
    1.1840   13.2180   -2.1350 O   0  0  0  0  0  0  0  0  0  0  0  0
    1.1070   12.3150   -3.1430 C   0  0  0  0  0  0  0  0  0  0  0  0
    0.7450   11.1550   -3.0050 O   0  0  0  0  0  0  0  0  0  0  0  0
    1.5240   12.9300   -4.4640 C   0  0  0  0  0  0  0  0  0  0  0  0
    0.3720   13.1450   -5.4410 C   0  0  0  0  0  0  0  0  0  0  0  0
   -0.4560   11.9720   -5.6520 N   0  0  0  0  0  0  0  0  0  0  0  0
   -1.5910   11.6630   -4.9520 C   0  0  0  0  0  0  0  0  0  0  0  0
   -0.2460   10.9870   -6.5740 C   0  0  0  0  0  0  0  0  0  0  0  0
   -2.1250   10.5350   -5.3660 N   0  0  0  0  0  0  0  0  0  0  0  0
   -1.3010   10.1000   -6.3720 C   0  0  0  0  0  0  0  0  0  0  0  0
    0.7360   10.7810   -7.5450 C   0  0  0  0  0  0  0  0  0  0  0  0
   -1.3910    8.9490   -7.1630 C   0  0  0  0  0  0  0  0  0  0  0  0
    0.6310    9.6300   -8.3250 C   0  0  0  0  0  0  0  0  0  0  0  0
   -0.4130    8.7230   -8.1420 C   0  0  0  0  0  0  0  0  0  0  0  0
  1  2  1  0
  2  3  2  0
  2  4  1  0
  3  5  1  0
  4  6  2  0
  5  7  1  0
  5  8  2  0
  6  8  1  0
  7  9  1  0
  7 10  2  0
  9 11  1  0
 11 12  1  0
 12 13  1  0
 13 14  2  0
 13 15  1  0
 15 16  1  0
 16 17  1  0
 17 18  1  0
 17 19  1  0
 18 20  2  0
 19 21  2  0
 20 21  1  0
 19 22  1  0
 21 23  1  0
 22 24  2  0
 23 25  2  0
 24 25  1  0
M  END
