mac-x0347-diamond-x0685_0_A
     RDKit          3D

 20 21  0  0  0  0  0  0  0  0999 V2000
    1.5500   14.5290   -3.5700 O   0  0  0  0  0  0  0  0  0  0  0  0
    0.7740   14.1050   -2.5640 C   0  0  0  0  0  0  0  0  0  0  0  0
    1.2310   13.4410   -1.6600 O   0  0  0  0  0  0  0  0  0  0  0  0
   -0.6210   14.5340   -2.6920 C   0  0  0  0  0  0  0  0  0  0  0  0
   -1.4460   14.5070   -1.5670 C   0  0  0  0  0  0  0  0  0  0  0  0
   -1.1510   14.9690   -3.9010 C   0  0  0  0  0  0  0  0  0  0  0  0
   -2.7690   14.9170   -1.6820 C   0  0  0  0  0  0  0  0  0  0  0  0
   -2.4280   15.3760   -4.0580 N   0  0  0  0  0  0  0  0  0  0  0  0
   -3.1980   15.3410   -2.9490 C   0  0  0  0  0  0  0  0  0  0  0  0
   -3.6940   14.9160   -0.5580 C   0  0  0  0  0  0  0  0  0  0  0  0
   -3.3250   15.2280    0.7430 C   0  0  0  0  0  0  0  0  0  0  0  0
   -4.9950   14.5850   -0.8280 C   0  0  0  0  0  0  0  0  0  0  0  0
   -5.2210   14.3000   -2.2080 C   0  0  0  0  0  0  0  0  0  0  0  0
   -4.2810   15.2010    1.7520 C   0  0  0  0  0  0  0  0  0  0  0  0
   -5.9780   14.5480    0.1820 C   0  0  0  0  0  0  0  0  0  0  0  0
   -5.2850   14.1090   -3.3480 N   0  0  0  0  0  0  0  0  0  0  0  0
   -5.6140   14.8660    1.5020 C   0  0  0  0  0  0  0  0  0  0  0  0
   -6.4560   14.8880    2.6000 N   0  0  0  0  0  0  0  0  0  0  0  0
   -7.8930   14.7400    2.5460 C   0  0  0  0  0  0  0  0  0  0  0  0
   -8.2710   13.3270    2.9510 C   0  0  0  0  0  0  0  0  0  0  0  0
  1  2  1  0
  2  3  2  0
  2  4  1  0
  4  5  2  0
  4  6  1  0
  5  7  1  0
  6  8  2  0
  7  9  2  0
  8  9  1  0
  7 10  1  0
 10 11  2  0
 10 12  1  0
 12 13  1  0
 11 14  1  0
 12 15  2  0
 13 16  3  0
 14 17  2  0
 15 17  1  0
 17 18  1  0
 18 19  1  0
 19 20  1  0
M  END
