mac-x0584-mac-x0284
     RDKit          3D

 28 32  0  0  0  0  0  0  0  0999 V2000
   -6.3790   12.5500   -0.6880 C   0  0  0  0  0  0  0  0  0  0  0  0
   -5.2720   12.9280   -1.6190 C   0  0  0  0  0  0  0  0  0  0  0  0
   -5.4760   13.8220   -2.6670 C   0  0  0  0  0  0  0  0  0  0  0  0
   -4.0080   12.3760   -1.4350 C   0  0  0  0  0  0  0  0  0  0  0  0
   -2.9210   12.6970   -2.2710 C   0  0  0  0  0  0  0  0  0  0  0  0
   -4.4150   14.1570   -3.5070 C   0  0  0  0  0  0  0  0  0  0  0  0
   -1.6000   12.0450   -1.9740 C   0  0  0  0  0  0  0  0  0  0  0  0
   -3.1270   13.6160   -3.3310 C   0  0  0  0  0  0  0  0  0  0  0  0
   -0.8080   12.3390   -1.0810 O   0  0  0  0  0  0  0  0  0  0  0  0
   -1.3150   11.0270   -2.8100 O   0  0  0  0  0  0  0  0  0  0  0  0
   -2.0140   14.0500   -4.2520 C   0  0  2  0  0  0  0  0  0  0  0  0
   -0.7350   13.2040   -4.2700 C   0  0  0  0  0  0  0  0  0  0  0  0
   -1.4520   15.3080   -3.6560 C   0  0  0  0  0  0  0  0  0  0  0  0
    0.0060   13.5890   -2.9650 C   0  0  2  0  0  0  0  0  0  0  0  0
   -0.7250   14.7630   -2.4750 N   0  0  0  0  0  0  0  0  0  0  0  0
    1.4700   13.9510   -3.1300 C   0  0  0  0  0  0  0  0  0  0  0  0
   -1.2170   14.7640   -1.1540 C   0  0  0  0  0  0  0  0  0  0  0  0
    1.9020   14.4230   -4.5280 C   0  0  0  0  0  0  0  0  0  0  0  0
    2.4530   12.7690   -3.2840 C   0  0  0  0  0  0  0  0  0  0  0  0
   -0.2960   14.4760   -0.1640 N   0  0  0  0  0  0  0  0  0  0  0  0
   -2.4700   15.0230   -0.7110 C   0  0  0  0  0  0  0  0  0  0  0  0
    2.4700   13.0170   -4.7980 C   0  0  0  0  0  0  0  0  0  0  0  0
   -0.6240   14.4210    1.1640 C   0  0  0  0  0  0  0  0  0  0  0  0
   -2.7480   14.9860    0.7540 C   0  0  0  0  0  0  0  0  0  0  0  0
   -3.7350   15.3840   -1.2680 C   0  0  0  0  0  0  0  0  0  0  0  0
   -1.7850   14.6560    1.6740 N   0  0  0  0  0  0  0  0  0  0  0  0
   -3.9800   15.3130    1.0280 N   0  0  0  0  0  0  0  0  0  0  0  0
   -4.5510   15.5420   -0.2170 C   0  0  0  0  0  0  0  0  0  0  0  0
  1  2  1  0
  2  3  2  0
  2  4  1  0
  4  5  2  0
  3  6  1  0
  5  7  1  0
  5  8  1  0
  6  8  2  0
  7  9  2  0
  7 10  1  0
 11  8  1  1
 11 12  1  0
 11 13  1  0
 12 14  1  0
 13 15  1  0
 14 15  1  0
 14 16  1  6
 15 17  1  0
 16 18  1  0
 16 19  1  0
 17 20  1  0
 17 21  2  0
 18 22  1  0
 19 22  1  0
 20 23  1  0
 21 24  1  0
 21 25  1  0
 23 26  2  0
 24 26  1  0
 24 27  2  0
 25 28  2  0
 27 28  1  0
M  END
