mac-x0455-diamond-x0471_0_A
     RDKit          3D

 30 32  0  0  0  0  0  0  0  0999 V2000
   -1.9920   13.4820   -2.3460 C   0  0  0  0  0  0  0  0  0  0  0  0
   -0.9380   13.8660   -3.4100 C   0  0  1  0  0  0  0  0  0  0  0  0
   -1.4910   14.9740   -4.1400 O   0  0  0  0  0  0  0  0  0  0  0  0
    0.3510   14.1640   -2.5870 C   0  0  0  0  0  0  0  0  0  0  0  0
   -0.8520   12.7260   -4.4170 C   0  0  0  0  0  0  0  0  0  0  0  0
    0.9720   15.2090   -2.5270 O   0  0  0  0  0  0  0  0  0  0  0  0
    0.7970   13.1230   -1.8510 O   0  0  0  0  0  0  0  0  0  0  0  0
   -2.7950   15.3100   -3.7070 C   0  0  0  0  0  0  0  0  0  0  0  0
   -1.8890   11.7790   -4.4380 C   0  0  0  0  0  0  0  0  0  0  0  0
    0.1990   12.5830   -5.3220 C   0  0  0  0  0  0  0  0  0  0  0  0
   -2.5630   15.8250   -2.3070 C   0  0  0  0  0  0  0  0  0  0  0  0
   -1.8760   10.7130   -5.3360 C   0  0  0  0  0  0  0  0  0  0  0  0
    0.2130   11.5150   -6.2230 C   0  0  0  0  0  0  0  0  0  0  0  0
   -0.8230   10.5860   -6.2270 C   0  0  0  0  0  0  0  0  0  0  0  0
   -3.5970   15.5090   -1.2610 C   0  0  0  0  0  0  0  0  0  0  0  0
   -4.9500   15.3180   -1.5930 C   0  0  0  0  0  0  0  0  0  0  0  0
   -3.1590   15.4130    0.0660 C   0  0  0  0  0  0  0  0  0  0  0  0
   -5.8160   15.0320   -0.5370 C   0  0  0  0  0  0  0  0  0  0  0  0
   -4.0430   15.1240    1.0990 C   0  0  0  0  0  0  0  0  0  0  0  0
   -7.1680   14.7950   -0.4770 N   0  0  0  0  0  0  0  0  0  0  0  0
   -5.3940   14.9310    0.7840 C   0  0  0  0  0  0  0  0  0  0  0  0
   -7.5040   14.5690    0.8410 C   0  0  0  0  0  0  0  0  0  0  0  0
   -6.4470   14.6430    1.6110 N   0  0  0  0  0  0  0  0  0  0  0  0
   -8.8980   14.2910    1.2790 C   0  0  0  0  0  0  0  0  0  0  0  0
   -8.8870   13.9660    2.6960 N   0  0  0  0  0  0  0  0  0  0  0  0
   -8.9710   14.9430    3.6720 C   0  0  0  0  0  0  0  0  0  0  0  0
   -9.2590   16.1110    3.4190 O   0  0  0  0  0  0  0  0  0  0  0  0
   -8.6860   14.4290    5.0830 C   0  0  0  0  0  0  0  0  0  0  0  0
   -9.9040   13.6870    5.6370 C   0  0  0  0  0  0  0  0  0  0  0  0
   -8.3000   15.5790    6.0120 C   0  0  0  0  0  0  0  0  0  0  0  0
  2  1  1  1
  2  3  1  0
  2  4  1  0
  2  5  1  0
  4  6  2  0
  4  7  1  0
  3  8  1  0
  5  9  2  0
  5 10  1  0
  8 11  1  0
  9 12  1  0
 10 13  2  0
 12 14  2  0
 13 14  1  0
 11 15  1  0
 15 16  2  0
 15 17  1  0
 16 18  1  0
 17 19  2  0
 18 20  1  0
 18 21  2  0
 19 21  1  0
 20 22  1  0
 21 23  1  0
 22 23  2  0
 22 24  1  0
 24 25  1  0
 25 26  1  0
 26 27  2  0
 26 28  1  0
 28 29  1  0
 28 30  1  0
M  END
