mac-x0380-mac-x0358
     RDKit          3D

 25 27  0  0  0  0  0  0  0  0999 V2000
   -2.5070   13.8580   -2.8740 O   0  0  0  0  0  0  0  0  0  0  0  0
   -3.0810   15.0660   -2.8330 C   0  0  0  0  0  0  0  0  0  0  0  0
   -2.8650   15.7540   -3.9040 N   0  0  0  0  0  0  0  0  0  0  0  0
   -3.7600   15.1050   -1.5460 C   0  0  0  0  0  0  0  0  0  0  0  0
   -5.1370   15.1180   -1.5920 C   0  0  0  0  0  0  0  0  0  0  0  0
   -3.0740   15.0930   -0.3260 C   0  0  0  0  0  0  0  0  0  0  0  0
   -2.2070   14.7640   -4.5870 C   0  0  0  0  0  0  0  0  0  0  0  0
   -5.8640   15.1010   -0.4240 C   0  0  0  0  0  0  0  0  0  0  0  0
   -3.8050   15.0810    0.8640 C   0  0  0  0  0  0  0  0  0  0  0  0
   -2.9020   14.0780   -5.5760 C   0  0  0  0  0  0  0  0  0  0  0  0
   -0.9050   14.4130   -4.2600 C   0  0  0  0  0  0  0  0  0  0  0  0
   -5.2080   15.0770    0.8150 C   0  0  0  0  0  0  0  0  0  0  0  0
   -7.6310   15.0910   -0.5620 S   0  0  0  0  0  0  0  0  0  0  0  0
   -0.2930   13.3430   -4.8940 C   0  0  0  0  0  0  0  0  0  0  0  0
   -2.3010   13.0110   -6.2230 C   0  0  0  0  0  0  0  0  0  0  0  0
    1.0990   12.9580   -4.4920 C   0  0  0  0  0  0  0  0  0  0  0  0
   -5.9260   15.0350    2.0190 N   0  0  0  0  0  0  0  0  0  0  0  0
   -7.9160   14.0800    0.8940 C   0  0  0  0  0  0  0  0  0  0  0  0
   -1.0050   12.6450   -5.8670 C   0  0  0  0  0  0  0  0  0  0  0  0
    1.0370   12.1790   -3.1970 C   0  0  0  0  0  0  0  0  0  0  0  0
   -0.4040   11.5810   -6.4610 O   0  0  0  0  0  0  0  0  0  0  0  0
   -7.2440   14.6550    2.1140 C   0  0  0  0  0  0  0  0  0  0  0  0
   -7.8590   14.7930    3.1760 O   0  0  0  0  0  0  0  0  0  0  0  0
    1.6470   12.8140   -2.1760 O   0  0  0  0  0  0  0  0  0  0  0  0
    0.5080   11.1000   -2.9870 O   0  0  0  0  0  0  0  0  0  0  0  0
  1  2  1  0
  2  3  2  3
  2  4  1  0
  4  5  2  0
  4  6  1  0
  3  7  1  0
  5  8  1  0
  6  9  2  0
  7 10  2  0
  7 11  1  0
  8 12  2  0
  9 12  1  0
  8 13  1  0
 11 14  2  0
 10 15  1  0
 14 16  1  0
 12 17  1  0
 13 18  1  0
 14 19  1  0
 15 19  2  0
 16 20  1  0
 19 21  1  0
 17 22  1  0
 18 22  1  0
 22 23  2  0
 20 24  1  0
 20 25  2  0
M  END
