mac-x0263-mac-x1493
     RDKit          3D

 17 18  0  0  0  0  0  0  0  0999 V2000
  -11.4610   14.3690    2.4430 O   0  0  0  0  0  0  0  0  0  0  0  0
  -10.7760   15.4830    2.7730 C   0  0  0  0  0  0  0  0  0  0  0  0
  -11.2000   16.2860    3.5920 O   0  0  0  0  0  0  0  0  0  0  0  0
   -9.4580   15.6730    2.0640 C   0  0  0  0  0  0  0  0  0  0  0  0
   -8.9980   14.4400    1.3000 C   0  0  0  0  0  0  0  0  0  0  0  0
   -7.6060   14.6060    0.7880 C   0  0  0  0  0  0  0  0  0  0  0  0
   -7.2840   14.6740   -0.5510 N   0  0  0  0  0  0  0  0  0  0  0  0
   -6.5320   14.7080    1.5310 N   0  0  0  0  0  0  0  0  0  0  0  0
   -5.9180   14.8170   -0.6540 C   0  0  0  0  0  0  0  0  0  0  0  0
   -5.4780   14.8390    0.6610 C   0  0  0  0  0  0  0  0  0  0  0  0
   -5.0470   14.9210   -1.7540 C   0  0  0  0  0  0  0  0  0  0  0  0
   -4.1160   14.9780    0.9390 C   0  0  0  0  0  0  0  0  0  0  0  0
   -3.6710   15.0350   -1.4510 C   0  0  0  0  0  0  0  0  0  0  0  0
   -3.2270   15.0710   -0.1270 C   0  0  0  0  0  0  0  0  0  0  0  0
   -2.5950   15.1030   -2.4840 C   0  0  0  0  0  0  0  0  0  0  0  0
   -1.3840   14.8100   -1.9640 O   0  0  0  0  0  0  0  0  0  0  0  0
   -2.7120   15.3650   -3.6650 O   0  0  0  0  0  0  0  0  0  0  0  0
  1  2  1  0
  2  3  2  0
  2  4  1  0
  4  5  1  0
  5  6  1  0
  6  7  1  0
  6  8  2  0
  7  9  1  0
  8 10  1  0
  9 10  2  0
  9 11  1  0
 10 12  1  0
 11 13  2  0
 12 14  2  0
 13 14  1  0
 13 15  1  0
 15 16  1  0
 15 17  2  0
M  END
