mac-x0345-diamond-x0722_0_A
     RDKit          3D

 19 21  0  0  0  0  0  0  0  0999 V2000
   -6.9060   13.6970    1.0830 C   0  0  0  0  0  0  0  0  0  0  0  0
   -5.7720   12.6660    0.9810 C   0  0  1  0  0  0  0  0  0  0  0  0
   -6.4090   11.5010    0.3650 N   0  0  0  0  0  0  0  0  0  0  0  0
   -6.5710   14.4470   -0.1520 C   0  0  2  0  0  0  0  0  0  0  0  0
   -4.5160   12.9880    0.0610 C   0  0  0  0  0  0  0  0  0  0  0  0
   -5.1000   14.7650    0.0530 C   0  0  2  0  0  0  0  0  0  0  0  0
   -7.3800   15.4550   -0.7840 N   0  0  0  0  0  0  0  0  0  0  0  0
   -4.6110   15.6360    1.0290 O   0  0  0  0  0  0  0  0  0  0  0  0
   -4.4960   15.1840   -1.2120 C   0  0  0  0  0  0  0  0  0  0  0  0
   -6.7620   15.7410   -2.0610 C   0  0  2  0  0  0  0  0  0  0  0  0
   -3.2980   13.7880    0.6180 C   0  0  2  0  0  0  0  0  0  0  0  0
   -7.3390   14.8300   -2.9960 N   0  0  0  0  0  0  0  0  0  0  0  0
   -5.2640   15.6080   -2.1660 C   0  0  0  0  0  0  0  0  0  0  0  0
   -3.3490   15.2900    0.6250 C   0  0  2  0  0  0  0  0  0  0  0  0
   -1.9430   13.7450   -0.1210 C   0  0  1  0  0  0  0  0  0  0  0  0
   -1.9040   14.1190   -1.6090 C   0  0  0  0  0  0  0  0  0  0  0  0
   -2.1870   15.4540    1.4350 N   0  0  0  0  0  0  0  0  0  0  0  0
   -1.1950   14.7800    0.6150 N   0  0  0  0  0  0  0  0  0  0  0  0
   -0.2150   14.1390    1.4730 C   0  0  0  0  0  0  0  0  0  0  0  0
  1  2  1  0
  2  3  1  6
  4  1  1  1
  2  5  1  0
  4  6  1  0
  4  7  1  0
  6  8  1  0
  6  9  1  6
  7 10  1  0
 11  5  1  6
 10 12  1  6
  9 13  2  0
 10 13  1  0
  8 14  1  0
 11 14  1  0
 11 15  1  0
 15 16  1  6
 14 17  1  1
 15 18  1  0
 17 18  1  0
 18 19  1  0
M  END
