mac-x0433-mac-x0132
     RDKit          3D

 14 15  0  0  0  0  0  0  0  0999 V2000
   -3.2430   13.9780    1.0520 C   0  0  0  0  0  0  0  0  0  0  0  0
   -3.6650   14.9910   -0.0090 C   0  0  1  0  0  0  0  0  0  0  0  0
   -3.3600   16.2090    0.6710 N   0  0  0  0  0  0  0  0  0  0  0  0
   -2.8090   14.7710   -1.2740 C   0  0  0  0  0  0  0  0  0  0  0  0
   -5.1600   15.0850   -0.3000 C   0  0  1  0  0  0  0  0  0  0  0  0
   -5.6530   14.5830   -1.6440 C   0  0  1  0  0  0  0  0  0  0  0  0
   -6.1270   14.4090    0.6280 C   0  0  1  0  0  0  0  0  0  0  0  0
   -3.4650   15.1880   -2.5630 C   0  0  0  0  0  0  0  0  0  0  0  0
   -5.7700   13.1860   -1.8310 N   0  0  0  0  0  0  0  0  0  0  0  0
   -6.0400   14.9350    1.9860 N   0  0  0  0  0  0  0  0  0  0  0  0
   -7.0500   14.9440   -1.5880 N   0  0  0  0  0  0  0  0  0  0  0  0
   -7.4280   14.7430   -0.1470 C   0  0  1  0  0  0  0  0  0  0  0  0
   -4.7910   15.0900   -2.7350 C   0  0  0  0  0  0  0  0  0  0  0  0
   -8.4930   13.6910    0.0460 C   0  0  0  0  0  0  0  0  0  0  0  0
  2  1  1  1
  2  3  1  0
  2  4  1  0
  5  2  1  1
  5  6  1  0
  5  7  1  0
  4  8  1  0
  6  9  1  1
  7 10  1  1
  6 11  1  0
  7 12  1  0
 11 12  1  0
  6 13  1  0
  8 13  2  0
 12 14  1  6
M  END
