mac-x0182-diamond-x0742_0_A
     RDKit          3D

 30 34  0  0  0  0  0  0  0  0999 V2000
    1.6740   11.8850   -6.9160 O   0  0  0  0  0  0  0  0  0  0  0  0
    0.7070   11.5670   -6.2630 C   0  0  0  0  0  0  0  0  0  0  0  0
    0.3640   12.1070   -5.0540 N   0  0  0  0  0  0  0  0  0  0  0  0
   -0.2460   10.5050   -6.6730 C   0  0  0  0  0  0  0  0  0  0  0  0
   -0.8100   11.1800   -4.2840 S   0  0  2  0  0  0  0  0  0  0  0  0
   -1.1460   10.1880   -5.6620 C   0  0  0  0  0  0  0  0  0  0  0  0
   -0.3040    9.8490   -7.8920 C   0  0  0  0  0  0  0  0  0  0  0  0
   -1.9590   12.1650   -4.0780 N   0  0  0  0  0  0  0  0  0  0  0  0
   -0.0940   10.4180   -3.2880 O   0  0  0  0  0  0  0  0  0  0  0  0
   -2.1270    9.2260   -5.8000 C   0  0  0  0  0  0  0  0  0  0  0  0
   -1.2900    8.8680   -8.0640 C   0  0  0  0  0  0  0  0  0  0  0  0
   -3.3140   11.6730   -3.7080 C   0  0  0  0  0  0  0  0  0  0  0  0
   -2.1930    8.5620   -7.0230 C   0  0  0  0  0  0  0  0  0  0  0  0
   -3.3370   11.2880   -2.2150 C   0  0  0  0  0  0  0  0  0  0  0  0
   -4.6800   11.2500   -1.6320 N   0  0  0  0  0  0  0  0  0  0  0  0
   -5.2950   12.1010   -0.8870 C   0  0  0  0  0  0  0  0  0  0  0  0
   -6.6780   11.6350   -0.4380 C   0  0  0  0  0  0  0  0  0  0  0  0
   -4.8410   13.4900   -0.3820 C   0  0  2  0  0  0  0  0  0  0  0  0
   -4.6220   13.4200    1.1510 C   0  0  0  0  0  0  0  0  0  0  0  0
   -6.0010   14.5100   -0.6260 C   0  0  0  0  0  0  0  0  0  0  0  0
   -3.6470   14.1190   -1.1780 C   0  0  1  0  0  0  0  0  0  0  0  0
   -4.1730   15.4470   -1.7480 C   0  0  0  0  0  0  0  0  0  0  0  0
   -2.3600   14.2600   -0.3970 C   0  0  0  0  0  0  0  0  0  0  0  0
   -3.7110   14.5190    1.6510 C   0  0  0  0  0  0  0  0  0  0  0  0
   -5.3070   15.8280   -0.8290 C   0  0  0  0  0  0  0  0  0  0  0  0
   -1.0890   14.2070   -0.9880 C   0  0  0  0  0  0  0  0  0  0  0  0
   -2.4110   14.4440    0.9670 C   0  0  0  0  0  0  0  0  0  0  0  0
   -1.3440   14.5650    1.7550 N   0  0  0  0  0  0  0  0  0  0  0  0
    0.0410   14.3420   -0.1860 C   0  0  0  0  0  0  0  0  0  0  0  0
   -0.1570   14.5180    1.1720 C   0  0  0  0  0  0  0  0  0  0  0  0
  1  2  2  0
  2  3  1  0
  2  4  1  0
  5  3  1  6
  4  6  2  0
  5  6  1  0
  4  7  1  0
  5  8  2  0
  5  9  2  0
  6 10  1  0
  7 11  2  0
  8 12  1  0
 10 13  2  0
 11 13  1  0
 12 14  1  0
 14 15  1  0
 15 16  2  3
 16 17  1  0
 18 16  1  6
 18 19  1  0
 18 20  1  0
 18 21  1  0
 21 22  1  1
 21 23  1  0
 19 24  1  0
 20 25  1  0
 22 25  1  0
 23 26  1  0
 23 27  2  0
 24 27  1  0
 27 28  1  0
 26 29  2  0
 28 30  2  0
 29 30  1  0
M  END
