mac-x0564-diamond-x0524_0_A
     RDKit          3D

 34 38  0  0  0  0  0  0  0  0999 V2000
    0.8940   14.5090   -1.0670 O   0  0  0  0  0  0  0  0  0  0  0  0
    0.0950   14.4370   -1.9840 C   0  0  0  0  0  0  0  0  0  0  0  0
    0.4760   14.0880   -3.2720 N   0  0  0  0  0  0  0  0  0  0  0  0
   -1.3180   14.6740   -1.8700 C   0  0  0  0  0  0  0  0  0  0  0  0
   -2.1690   14.7670   -2.9330 C   0  0  0  0  0  0  0  0  0  0  0  0
   -0.3690   14.1950   -4.2510 C   0  0  0  0  0  0  0  0  0  0  0  0
   -1.9980   14.8290   -0.6980 O   0  0  0  0  0  0  0  0  0  0  0  0
    0.1410   13.7810   -5.6150 C   0  0  0  0  0  0  0  0  0  0  0  0
   -1.6830   14.6440   -4.1790 N   0  0  0  0  0  0  0  0  0  0  0  0
   -3.3110   15.0170   -1.0440 C   0  0  0  0  0  0  0  0  0  0  0  0
   -3.4640   14.9800   -2.4310 C   0  0  0  0  0  0  0  0  0  0  0  0
    0.6900   12.3640   -5.6320 C   0  0  0  0  0  0  0  0  0  0  0  0
   -4.7440   15.1460   -2.9680 C   0  0  0  0  0  0  0  0  0  0  0  0
   -4.3640   15.2150   -0.1540 C   0  0  0  0  0  0  0  0  0  0  0  0
   -0.4310   11.3460   -5.8240 C   0  0  0  0  0  0  0  0  0  0  0  0
   -5.8230   15.3470   -2.0990 C   0  0  0  0  0  0  0  0  0  0  0  0
   -5.6330   15.3790   -0.7190 C   0  0  0  0  0  0  0  0  0  0  0  0
   -0.0930   10.4720   -6.9380 N   0  0  0  0  0  0  0  0  0  0  0  0
   -0.7520    9.3980   -7.1830 C   0  0  0  0  0  0  0  0  0  0  0  0
   -0.5080    8.4940   -8.1890 N   0  0  0  0  0  0  0  0  0  0  0  0
   -1.9110    9.1170   -6.2360 C   0  0  0  0  0  0  0  0  0  0  0  0
    0.5160    8.5820   -9.1580 C   0  0  0  0  0  0  0  0  0  0  0  0
    1.6580    7.7840   -9.0060 C   0  0  0  0  0  0  0  0  0  0  0  0
    0.4510    9.4220  -10.2670 C   0  0  0  0  0  0  0  0  0  0  0  0
    2.6990    7.8270   -9.9430 C   0  0  0  0  0  0  0  0  0  0  0  0
    1.4880    9.4640  -11.2000 C   0  0  0  0  0  0  0  0  0  0  0  0
    2.6270    8.6700  -11.0590 C   0  0  0  0  0  0  0  0  0  0  0  0
    3.6760    8.6930  -11.9840 N   0  0  0  0  0  0  0  0  0  0  0  0
    3.9570    9.5620  -13.0550 C   0  0  0  0  0  0  0  0  0  0  0  0
    3.2220   10.7300  -13.3030 C   0  0  0  0  0  0  0  0  0  0  0  0
    5.0170    9.2560  -13.9120 C   0  0  0  0  0  0  0  0  0  0  0  0
    3.5380   11.5620  -14.3760 C   0  0  0  0  0  0  0  0  0  0  0  0
    5.3360   10.0870  -14.9870 C   0  0  0  0  0  0  0  0  0  0  0  0
    4.5950   11.2420  -15.2180 C   0  0  0  0  0  0  0  0  0  0  0  0
  1  2  2  0
  2  3  1  0
  2  4  1  0
  4  5  2  0
  3  6  2  0
  4  7  1  0
  6  8  1  0
  5  9  1  0
  6  9  1  0
  7 10  1  0
  5 11  1  0
 10 11  2  0
  8 12  1  0
 11 13  1  0
 10 14  1  0
 12 15  1  0
 13 16  2  0
 14 17  2  0
 16 17  1  0
 15 18  1  0
 18 19  2  3
 19 20  1  0
 19 21  1  0
 20 22  1  0
 22 23  2  0
 22 24  1  0
 23 25  1  0
 24 26  2  0
 25 27  2  0
 26 27  1  0
 27 28  1  0
 28 29  1  0
 29 30  2  0
 29 31  1  0
 30 32  1  0
 31 33  2  0
 32 34  2  0
 33 34  1  0
M  END
