mac-x0567-diamond-x0685_1_A
     RDKit          3D

 24 26  0  0  0  0  0  0  0  0999 V2000
   -0.4600   14.3650   -1.8180 N   0  0  0  0  0  0  0  0  0  0  0  0
   -1.4060   14.5170   -0.8920 C   0  0  0  0  0  0  0  0  0  0  0  0
   -1.1370   14.2360    0.3320 N   0  0  0  0  0  0  0  0  0  0  0  0
   -2.6520   14.9000   -0.9100 C   0  0  0  0  0  0  0  0  0  0  0  0
    0.1740   13.7260    0.4090 C   0  0  0  0  0  0  0  0  0  0  0  0
   -2.1300   14.4450    1.2660 N   0  0  0  0  0  0  0  0  0  0  0  0
   -3.1360   14.8740    0.4450 C   0  0  0  0  0  0  0  0  0  0  0  0
   -3.2900   15.2400   -2.0720 C   0  0  0  0  0  0  0  0  0  0  0  0
    0.0280   12.5880   -0.5400 O   0  0  0  0  0  0  0  0  0  0  0  0
   -4.4600   15.2550    0.6820 C   0  0  0  0  0  0  0  0  0  0  0  0
   -4.5960   15.5960   -1.8060 C   0  0  0  0  0  0  0  0  0  0  0  0
    0.5780   12.2110   -2.0690 S   0  0  0  0  0  0  0  0  0  0  0  0
   -5.1580   15.6090   -0.5030 C   0  0  0  0  0  0  0  0  0  0  0  0
   -0.4740   12.8880   -3.3780 C   0  0  0  0  0  0  0  0  0  0  0  0
    2.0760   12.7090   -2.3800 O   0  0  0  0  0  0  0  0  0  0  0  0
    0.4870   10.6180   -2.2900 O   0  0  0  0  0  0  0  0  0  0  0  0
   -1.2900   11.8680   -4.1900 C   0  0  0  0  0  0  0  0  0  0  0  0
   -0.5600   10.8050   -4.8970 N   0  0  0  0  0  0  0  0  0  0  0  0
   -1.1940   10.2260   -6.0860 C   0  0  0  0  0  0  0  0  0  0  0  0
   -0.6170    8.8270   -6.4050 C   0  0  0  0  0  0  0  0  0  0  0  0
   -1.0260   11.1830   -7.2840 C   0  0  0  0  0  0  0  0  0  0  0  0
    0.1550    8.7650   -7.7220 C   0  0  0  0  0  0  0  0  0  0  0  0
   -1.3750   10.5490   -8.6390 C   0  0  0  0  0  0  0  0  0  0  0  0
   -0.7040    9.1960   -8.9000 C   0  0  0  0  0  0  0  0  0  0  0  0
  1  2  1  0
  2  3  1  0
  2  4  2  0
  3  5  1  0
  3  6  1  0
  4  7  1  0
  6  7  2  0
  4  8  1  0
  5  9  1  0
  7 10  1  0
  8 11  2  0
 12  9  1  0
 10 13  2  0
 11 13  1  0
 12 14  1  0
 12 15  1  0
 12 16  1  0
 14 17  1  0
 17 18  1  0
 18 19  1  0
 19 20  1  0
 19 21  1  0
 20 22  1  0
 21 23  1  0
 22 24  1  0
 23 24  1  0
M  END
