mac-x0365-diamond-x0282_0_A
     RDKit          3D

 17 18  0  0  0  0  0  0  0  0999 V2000
   -0.5970   15.1630   -1.8180 O   0  0  0  0  0  0  0  0  0  0  0  0
   -1.7100   14.9010   -2.5380 C   0  0  0  0  0  0  0  0  0  0  0  0
   -1.6300   14.8520   -3.7540 O   0  0  0  0  0  0  0  0  0  0  0  0
   -2.9670   14.6860   -1.7320 C   0  0  2  0  0  0  0  0  0  0  0  0
   -4.0190   15.6940   -2.0740 C   0  0  0  0  0  0  0  0  0  0  0  0
   -2.8040   14.4580   -0.1960 C   0  0  1  0  0  0  0  0  0  0  0  0
   -5.4180   15.3340   -1.6260 C   0  0  1  0  0  0  0  0  0  0  0  0
   -4.2220   14.5580    0.5180 C   0  0  0  0  0  0  0  0  0  0  0  0
   -2.2680   13.1410   -0.3520 N   0  0  0  0  0  0  0  0  0  0  0  0
   -1.8600   15.2460    0.6380 N   0  0  0  0  0  0  0  0  0  0  0  0
   -6.0730   14.7380   -2.6640 F   0  0  0  0  0  0  0  0  0  0  0  0
   -5.4780   14.4440   -0.3840 C   0  0  1  0  0  0  0  0  0  0  0  0
   -0.9110   13.1780   -0.9160 C   0  0  0  0  0  0  0  0  0  0  0  0
   -0.4920   15.0150    0.6070 C   0  0  0  0  0  0  0  0  0  0  0  0
   -6.6780   14.8320    0.3140 O   0  0  0  0  0  0  0  0  0  0  0  0
    0.0130   14.0360   -0.1290 C   0  0  0  0  0  0  0  0  0  0  0  0
   -7.1800   13.8230    1.1840 C   0  0  0  0  0  0  0  0  0  0  0  0
  1  2  1  0
  2  3  2  0
  4  2  1  1
  4  5  1  0
  4  6  1  0
  5  7  1  0
  6  8  1  1
  6  9  1  0
  6 10  1  0
  7 11  1  6
  7 12  1  0
  8 12  1  0
  9 13  1  0
 10 14  1  0
 12 15  1  1
 13 16  1  0
 14 16  2  0
 15 17  1  0
M  END
