mac-x0255-mac-x0282
     RDKit          3D

 24 27  0  0  0  0  0  0  0  0999 V2000
    2.4280   12.3050   -2.4690 O   0  0  0  0  0  0  0  0  0  0  0  0
    1.1700   12.6940   -2.9030 C   0  0  0  0  0  0  0  0  0  0  0  0
    0.2460   11.6980   -2.4640 O   0  0  0  0  0  0  0  0  0  0  0  0
    1.1260   12.7850   -4.4230 C   0  0  0  0  0  0  0  0  0  0  0  0
    0.8290   14.1090   -2.4050 C   0  0  0  0  0  0  0  0  0  0  0  0
    0.9740   14.3570   -0.9240 C   0  0  0  0  0  0  0  0  0  0  0  0
    0.4830   14.0970   -4.7210 C   0  0  0  0  0  0  0  0  0  0  0  0
    1.0960   15.3130   -4.8720 C   0  0  0  0  0  0  0  0  0  0  0  0
   -1.2090   14.2130   -4.8880 S   0  0  0  0  0  0  0  0  0  0  0  0
   -0.3240   14.5220   -0.2610 C   0  0  0  0  0  0  0  0  0  0  0  0
    0.1800   16.3690   -5.1410 C   0  0  0  0  0  0  0  0  0  0  0  0
   -1.1360   15.9010   -5.1760 C   0  0  0  0  0  0  0  0  0  0  0  0
   -1.4280   14.7840   -1.0580 C   0  0  0  0  0  0  0  0  0  0  0  0
   -0.4830   14.4220    1.1220 C   0  0  0  0  0  0  0  0  0  0  0  0
    0.4150   17.7350   -5.3670 C   0  0  0  0  0  0  0  0  0  0  0  0
   -2.2170   16.7640   -5.4290 C   0  0  0  0  0  0  0  0  0  0  0  0
   -2.6530   14.9380   -0.4350 C   0  0  0  0  0  0  0  0  0  0  0  0
   -1.6490   14.5570    1.7730 N   0  0  0  0  0  0  0  0  0  0  0  0
   -0.6550   18.5890   -5.6240 C   0  0  0  0  0  0  0  0  0  0  0  0
   -1.9450   18.1110   -5.6550 C   0  0  0  0  0  0  0  0  0  0  0  0
   -3.9690   15.2130   -0.8630 C   0  0  0  0  0  0  0  0  0  0  0  0
   -2.6780   14.8100    0.9460 C   0  0  0  0  0  0  0  0  0  0  0  0
   -4.7610   15.2360    0.2570 C   0  0  0  0  0  0  0  0  0  0  0  0
   -3.9640   14.9850    1.3450 N   0  0  0  0  0  0  0  0  0  0  0  0
  2  1  1  0
  2  3  1  0
  2  4  1  0
  2  5  1  0
  5  6  1  0
  4  7  1  0
  7  8  2  0
  7  9  1  0
  6 10  1  0
  8 11  1  0
  9 12  1  0
 11 12  2  0
 10 13  2  0
 10 14  1  0
 11 15  1  0
 12 16  1  0
 13 17  1  0
 14 18  2  0
 15 19  2  0
 16 20  2  0
 19 20  1  0
 17 21  1  0
 17 22  2  0
 18 22  1  0
 21 23  2  0
 22 24  1  0
 23 24  1  0
M  END
