mac-x0115-mac-x0123
     RDKit          3D

 26 29  0  0  0  0  0  0  0  0999 V2000
   -1.4400   18.6570   -5.2430 C   0  0  0  0  0  0  0  0  0  0  0  0
   -0.4270   17.6750   -5.8030 C   0  0  0  0  0  0  0  0  0  0  0  0
    0.9940   18.1370   -5.5490 C   0  0  0  0  0  0  0  0  0  0  0  0
   -0.6780   16.4190   -5.1710 O   0  0  0  0  0  0  0  0  0  0  0  0
    0.4480   15.7390   -4.6150 C   0  0  0  0  0  0  0  0  0  0  0  0
    0.0450   14.4500   -3.8720 C   0  0  0  0  0  0  0  0  0  0  0  0
   -0.3310   14.5860   -2.4360 N   0  0  0  0  0  0  0  0  0  0  0  0
    0.6530   14.4960   -1.4640 C   0  0  0  0  0  0  0  0  0  0  0  0
   -1.7180   14.2290   -2.0990 C   0  0  1  0  0  0  0  0  0  0  0  0
    2.2690   14.1360   -1.7470 S   0  0  0  0  0  0  0  0  0  0  0  0
    0.2780   14.7310   -0.1590 N   0  0  0  0  0  0  0  0  0  0  0  0
   -2.1130   14.0630   -0.6120 C   0  0  1  0  0  0  0  0  0  0  0  0
   -2.6640   15.2920   -2.5700 C   0  0  0  0  0  0  0  0  0  0  0  0
   -1.0100   14.5830    0.3380 C   0  0  0  0  0  0  0  0  0  0  0  0
   -3.6490   14.5680   -0.5560 C   0  0  2  0  0  0  0  0  0  0  0  0
   -3.6880   15.5000   -1.7290 C   0  0  0  0  0  0  0  0  0  0  0  0
   -1.2200   14.8270    1.5370 O   0  0  0  0  0  0  0  0  0  0  0  0
   -4.3070   15.0620    0.8220 C   0  0  2  0  0  0  0  0  0  0  0  0
   -4.6340   13.5220   -1.1600 C   0  0  0  0  0  0  0  0  0  0  0  0
   -3.2960   15.1090    1.8860 N   0  0  0  0  0  0  0  0  0  0  0  0
   -6.0080   14.0300   -1.1430 N   0  0  0  0  0  0  0  0  0  0  0  0
   -5.5280   14.1820    1.3120 C   0  0  2  0  0  0  0  0  0  0  0  0
   -6.5040   13.7390    0.1930 C   0  0  1  0  0  0  0  0  0  0  0  0
   -6.4890   14.7850    2.3160 C   0  0  0  0  0  0  0  0  0  0  0  0
   -7.9050   14.2950    0.5070 C   0  0  0  0  0  0  0  0  0  0  0  0
   -7.7570   14.8220    1.8900 C   0  0  0  0  0  0  0  0  0  0  0  0
  1  2  1  0
  2  3  1  0
  2  4  1  0
  4  5  1  0
  5  6  1  0
  6  7  1  0
  7  8  1  0
  7  9  1  0
  8 10  2  0
  8 11  1  0
  9 12  1  0
  9 13  1  1
 11 14  1  0
 12 14  1  1
 12 15  1  0
 13 16  2  0
 15 16  1  6
 14 17  2  0
 15 18  1  0
 15 19  1  0
 18 20  1  1
 19 21  1  0
 18 22  1  0
 21 23  1  0
 22 23  1  0
 22 24  1  1
 23 25  1  1
 24 26  2  0
 25 26  1  0
M  END
