mac-x0124-mac-x0398
     RDKit          3D

 21 23  0  0  0  0  0  0  0  0999 V2000
   -1.3780   14.7130   -3.6890 C   0  0  0  0  0  0  0  0  0  0  0  0
   -1.1360   14.7100   -2.2700 N   0  0  0  0  0  0  0  0  0  0  0  0
   -2.5700   14.9110   -2.1980 C   0  0  0  0  0  0  0  0  0  0  0  0
   -1.0790   14.7340   -0.8190 C   0  0  0  0  0  0  0  0  0  0  0  0
   -3.1350   15.0340   -1.0050 C   0  0  0  0  0  0  0  0  0  0  0  0
   -2.2380   14.9240   -0.1100 C   0  0  0  0  0  0  0  0  0  0  0  0
    0.0750   14.5800   -0.1640 N   0  0  0  0  0  0  0  0  0  0  0  0
   -3.7320   15.0350   -2.9690 C   0  0  0  0  0  0  0  0  0  0  0  0
   -2.3000   14.9720    1.2520 C   0  0  0  0  0  0  0  0  0  0  0  0
   -0.1200   14.6300    1.1760 C   0  0  0  0  0  0  0  0  0  0  0  0
   -3.9490   15.1670   -4.1680 O   0  0  0  0  0  0  0  0  0  0  0  0
   -4.7180   14.9580   -1.8500 C   0  0  0  0  0  0  0  0  0  0  0  0
   -3.4480   15.1960    1.9740 N   0  0  0  0  0  0  0  0  0  0  0  0
   -1.2050   14.8020    1.8940 N   0  0  0  0  0  0  0  0  0  0  0  0
   -6.0970   15.0530   -1.8650 C   0  0  0  0  0  0  0  0  0  0  0  0
   -4.0740   14.7510   -0.6150 C   0  0  0  0  0  0  0  0  0  0  0  0
   -6.7350   15.2280   -3.0550 O   0  0  0  0  0  0  0  0  0  0  0  0
   -6.8120   14.9510   -0.6400 C   0  0  0  0  0  0  0  0  0  0  0  0
   -4.7760   14.6450    0.5740 C   0  0  0  0  0  0  0  0  0  0  0  0
   -6.1410   14.7440    0.5900 C   0  0  0  0  0  0  0  0  0  0  0  0
   -6.7840   14.6310    1.8340 N   0  0  0  0  0  0  0  0  0  0  0  0
  1  2  1  0
  2  3  1  0
  2  4  1  0
  3  5  2  0
  4  6  2  0
  5  6  1  0
  4  7  1  0
  3  8  1  0
  6  9  1  0
  7 10  2  0
  8 11  2  0
  8 12  1  0
  9 13  1  0
  9 14  2  0
 10 14  1  0
 12 15  2  0
 12 16  1  0
 15 17  1  0
 15 18  1  0
 16 19  2  0
 18 20  2  0
 19 20  1  0
 20 21  1  0
M  END
