mac-x0180-mac-x0546
     RDKit          3D

 28 30  0  0  0  0  0  0  0  0999 V2000
   -7.7120   14.5230    1.7050 C   0  0  0  0  0  0  0  0  0  0  0  0
   -6.8770   14.8170    0.4910 C   0  0  0  0  0  0  0  0  0  0  0  0
   -7.3420   14.6840   -0.6360 O   0  0  0  0  0  0  0  0  0  0  0  0
   -5.5870   15.2360    0.7980 N   0  0  0  0  0  0  0  0  0  0  0  0
   -4.5750   14.9820   -0.0960 C   0  0  0  0  0  0  0  0  0  0  0  0
   -3.3110   14.6490    0.3900 C   0  0  0  0  0  0  0  0  0  0  0  0
   -4.8260   15.0330   -1.4610 C   0  0  0  0  0  0  0  0  0  0  0  0
   -2.3090   14.3210   -0.5130 C   0  0  0  0  0  0  0  0  0  0  0  0
   -3.8390   14.7090   -2.3560 C   0  0  0  0  0  0  0  0  0  0  0  0
   -2.6030   14.3350   -1.8820 C   0  0  0  0  0  0  0  0  0  0  0  0
   -1.6180   13.8970   -2.8300 C   0  0  0  0  0  0  0  0  0  0  0  0
   -1.0890   14.1750   -3.9200 N   0  0  0  0  0  0  0  0  0  0  0  0
   -1.1040   12.7900   -2.3130 O   0  0  0  0  0  0  0  0  0  0  0  0
   -1.2000   15.2410   -4.6870 C   0  0  0  0  0  0  0  0  0  0  0  0
   -2.1240   16.1690   -5.0200 C   0  0  0  0  0  0  0  0  0  0  0  0
    0.1350   15.2910   -5.2180 C   0  0  1  0  0  0  0  0  0  0  0  0
   -3.4300   16.1390   -4.6210 O   0  0  0  0  0  0  0  0  0  0  0  0
    0.4850   16.6770   -4.9970 C   0  0  0  0  0  0  0  0  0  0  0  0
   -1.6530   17.3110   -5.8080 C   0  0  0  0  0  0  0  0  0  0  0  0
    1.1300   14.5770   -4.4110 C   0  0  0  0  0  0  0  0  0  0  0  0
   -4.2110   15.2500   -5.4330 C   0  0  0  0  0  0  0  0  0  0  0  0
    1.2020   13.0670   -4.3940 C   0  0  0  0  0  0  0  0  0  0  0  0
   -0.3240   17.6260   -5.7910 C   0  0  0  0  0  0  0  0  0  0  0  0
    1.4060   16.8290   -4.1310 N   0  0  0  0  0  0  0  0  0  0  0  0
    1.8080   15.5280   -3.8040 C   0  0  0  0  0  0  0  0  0  0  0  0
    0.9350   12.3520   -3.0690 C   0  0  0  0  0  0  0  0  0  0  0  0
    1.1760   12.7460   -1.9440 O   0  0  0  0  0  0  0  0  0  0  0  0
    0.3590   11.1350   -3.2250 O   0  0  0  0  0  0  0  0  0  0  0  0
  1  2  1  0
  2  3  2  0
  2  4  1  0
  4  5  1  0
  5  6  2  0
  5  7  1  0
  6  8  1  0
  7  9  2  0
  8 10  2  0
  9 10  1  0
 10 11  1  0
 11 12  2  3
 11 13  1  0
 12 14  1  0
 14 15  2  0
 16 14  1  1
 15 17  1  0
 16 18  1  0
 15 19  1  0
 16 20  1  0
 17 21  1  0
 20 22  1  0
 18 23  1  0
 19 23  2  0
 18 24  2  0
 20 25  2  0
 24 25  1  0
 22 26  1  0
 26 27  2  0
 26 28  1  0
M  END
