mac-x0228-mac-x0546
     RDKit          3D

 27 30  0  0  0  0  0  0  0  0999 V2000
   -1.7380   15.3450   -2.2770 O   0  0  0  0  0  0  0  0  0  0  0  0
   -2.7680   14.8680   -2.9820 C   0  0  0  0  0  0  0  0  0  0  0  0
   -2.7280   14.6550   -4.2550 N   0  0  0  0  0  0  0  0  0  0  0  0
   -3.9630   14.7470   -2.1860 C   0  0  0  0  0  0  0  0  0  0  0  0
   -3.9490   14.5500   -0.8090 C   0  0  0  0  0  0  0  0  0  0  0  0
   -5.1440   14.9010   -2.9040 C   0  0  0  0  0  0  0  0  0  0  0  0
   -1.6260   15.3380   -4.5600 C   0  0  0  0  0  0  0  0  0  0  0  0
   -5.1870   14.5290   -0.1900 C   0  0  0  0  0  0  0  0  0  0  0  0
   -6.3640   14.8770   -2.2690 C   0  0  0  0  0  0  0  0  0  0  0  0
   -1.9080   16.4610   -5.2490 C   0  0  0  0  0  0  0  0  0  0  0  0
   -0.2610   15.0640   -4.0630 C   0  0  2  0  0  0  0  0  0  0  0  0
   -3.1490   16.7930   -5.7330 O   0  0  0  0  0  0  0  0  0  0  0  0
   -6.3590   14.6950   -0.9150 C   0  0  0  0  0  0  0  0  0  0  0  0
   -5.5180   14.3520    1.2280 C   0  0  0  0  0  0  0  0  0  0  0  0
    0.7320   15.9880   -4.7220 C   0  0  0  0  0  0  0  0  0  0  0  0
   -0.9100   17.4920   -5.4940 C   0  0  0  0  0  0  0  0  0  0  0  0
    0.5700   13.8170   -4.1650 C   0  0  0  0  0  0  0  0  0  0  0  0
   -4.0280   15.7090   -6.0730 C   0  0  0  0  0  0  0  0  0  0  0  0
    0.1280   12.4180   -3.9010 C   0  0  0  0  0  0  0  0  0  0  0  0
   -7.4980   14.6610   -0.1640 O   0  0  0  0  0  0  0  0  0  0  0  0
   -7.0420   14.2560    1.1460 C   0  0  0  0  0  0  0  0  0  0  0  0
    0.3850   17.3280   -5.2160 C   0  0  0  0  0  0  0  0  0  0  0  0
    1.8910   15.5000   -4.8290 N   0  0  0  0  0  0  0  0  0  0  0  0
    1.7890   14.1810   -4.5250 C   0  0  0  0  0  0  0  0  0  0  0  0
    0.2480   11.8980   -2.4830 C   0  0  0  0  0  0  0  0  0  0  0  0
    0.5240   12.4840   -1.4530 O   0  0  0  0  0  0  0  0  0  0  0  0
   -0.0190   10.5680   -2.4370 O   0  0  0  0  0  0  0  0  0  0  0  0
  1  2  1  0
  2  3  2  3
  2  4  1  0
  4  5  2  0
  4  6  1  0
  3  7  1  0
  5  8  1  0
  6  9  2  0
  7 10  2  0
 11  7  1  6
 10 12  1  0
  8 13  2  0
  9 13  1  0
  8 14  1  0
 11 15  1  0
 10 16  1  0
 11 17  1  0
 12 18  1  0
 17 19  1  0
 13 20  1  0
 14 21  1  0
 20 21  1  0
 15 22  1  0
 16 22  2  0
 15 23  2  0
 17 24  2  0
 23 24  1  0
 19 25  1  0
 25 26  2  0
 25 27  1  0
M  END
