mac-x0588-mac-x0348
     RDKit          3D

 26 29  0  0  0  0  0  0  0  0999 V2000
   -4.5910   14.7700    0.9790 N   0  0  0  0  0  0  0  0  0  0  0  0
   -3.5630   15.2470    0.0880 C   0  0  1  0  0  0  0  0  0  0  0  0
   -2.1100   15.0030    0.5610 C   0  0  2  0  0  0  0  0  0  0  0  0
   -3.8570   14.5830   -1.1710 N   0  0  0  0  0  0  0  0  0  0  0  0
   -2.9480   14.8950   -2.2740 C   0  0  0  0  0  0  0  0  0  0  0  0
   -1.3260   14.3470   -0.5560 C   0  0  1  0  0  0  0  0  0  0  0  0
   -1.7040   14.1290    1.6290 N   0  0  0  0  0  0  0  0  0  0  0  0
   -1.5390   14.9460   -1.8470 N   0  0  0  0  0  0  0  0  0  0  0  0
   -0.0280   14.6050    0.0160 N   0  0  0  0  0  0  0  0  0  0  0  0
   -0.2520   14.1310    1.3880 C   0  0  0  0  0  0  0  0  0  0  0  0
   -0.4250   14.7530   -2.8120 C   0  0  1  0  0  0  0  0  0  0  0  0
   -0.1310   13.3390   -3.3900 C   0  0  0  0  0  0  0  0  0  0  0  0
   -0.3870   15.7470   -3.9940 C   0  0  1  0  0  0  0  0  0  0  0  0
    0.7240   12.3300   -2.6730 C   0  0  0  0  0  0  0  0  0  0  0  0
   -1.4800   16.6580   -4.1360 O   0  0  0  0  0  0  0  0  0  0  0  0
    0.8510   16.5570   -4.4030 C   0  0  0  0  0  0  0  0  0  0  0  0
    1.7370   12.6410   -2.0700 O   0  0  0  0  0  0  0  0  0  0  0  0
    0.3010   11.0560   -2.7350 O   0  0  0  0  0  0  0  0  0  0  0  0
    0.1300   17.6600   -5.1570 C   0  0  2  0  0  0  0  0  0  0  0  0
   -1.1270   16.8430   -5.4390 C   0  0  2  0  0  0  0  0  0  0  0  0
    0.8810   18.2900   -6.3060 C   0  0  0  0  0  0  0  0  0  0  0  0
   -2.3350   17.4700   -6.1300 C   0  0  0  0  0  0  0  0  0  0  0  0
   -1.0440   15.3380   -5.4080 C   0  0  0  0  0  0  0  0  0  0  0  0
   -2.1300   14.5820   -5.6040 C   0  0  0  0  0  0  0  0  0  0  0  0
   -3.4950   16.4910   -6.1510 C   0  0  0  0  0  0  0  0  0  0  0  0
   -3.3900   15.1880   -5.8970 C   0  0  0  0  0  0  0  0  0  0  0  0
  2  1  1  1
  2  3  1  0
  2  4  1  0
  4  5  1  0
  3  6  1  0
  3  7  1  1
  5  8  1  0
  6  8  1  0
  6  9  1  1
  7 10  1  0
  9 10  1  0
  8 11  1  0
 11 12  1  6
 11 13  1  0
 12 14  1  0
 13 15  1  0
 13 16  1  1
 14 17  2  0
 14 18  1  0
 16 19  1  0
 20 15  1  0
 19 20  1  0
 19 21  1  6
 20 22  1  6
 20 23  1  0
 23 24  2  0
 22 25  1  0
 24 26  1  0
 25 26  2  0
M  END
