mac-x0271-mac-x0588
     RDKit          3D

 27 31  0  0  0  0  0  0  0  0999 V2000
   -4.7950   15.2110   -3.8050 O   0  0  0  0  0  0  0  0  0  0  0  0
   -5.1510   15.1110   -2.5030 C   0  0  0  0  0  0  0  0  0  0  0  0
   -4.1990   14.8340   -1.6150 C   0  0  0  0  0  0  0  0  0  0  0  0
   -6.4500   15.2760   -2.0880 C   0  0  0  0  0  0  0  0  0  0  0  0
   -6.7360   15.1350   -0.7280 C   0  0  0  0  0  0  0  0  0  0  0  0
   -4.4420   14.6840   -0.2810 C   0  0  0  0  0  0  0  0  0  0  0  0
   -5.7540   14.8340    0.2290 C   0  0  0  0  0  0  0  0  0  0  0  0
   -8.0840   15.3060   -0.3680 O   0  0  0  0  0  0  0  0  0  0  0  0
   -3.1570   14.3450    0.3510 C   0  0  1  0  0  0  0  0  0  0  0  0
   -6.2080   14.6970    1.6180 C   0  0  0  0  0  0  0  0  0  0  0  0
   -8.5480   14.9250    0.8760 C   0  0  0  0  0  0  0  0  0  0  0  0
   -2.6100   13.3170   -0.5350 N   0  0  0  0  0  0  0  0  0  0  0  0
   -2.1610   15.4790    0.3400 C   0  0  2  0  0  0  0  0  0  0  0  0
   -9.7380   14.7640    1.1090 O   0  0  0  0  0  0  0  0  0  0  0  0
   -7.5190   14.7350    1.9140 C   0  0  0  0  0  0  0  0  0  0  0  0
   -2.5300   13.7070   -1.9430 C   0  0  0  0  0  0  0  0  0  0  0  0
   -1.2220   15.3730   -0.8750 C   0  0  2  0  0  0  0  0  0  0  0  0
   -1.2360   15.4710    1.4290 N   0  0  0  0  0  0  0  0  0  0  0  0
   -1.8770   14.9870   -2.0890 N   0  0  0  0  0  0  0  0  0  0  0  0
   -0.2230   14.4350   -0.4140 N   0  0  0  0  0  0  0  0  0  0  0  0
   -0.0540   14.7660    0.9810 C   0  0  0  0  0  0  0  0  0  0  0  0
   -1.2320   15.1760   -3.3820 C   0  0  0  0  0  0  0  0  0  0  0  0
   -0.5620   16.5220   -3.7190 C   0  0  2  0  0  0  0  0  0  0  0  0
   -1.5250   17.4490   -4.3180 O   0  0  0  0  0  0  0  0  0  0  0  0
    0.6000   16.4220   -4.7000 C   0  0  0  0  0  0  0  0  0  0  0  0
    0.6080   17.7980   -5.3150 C   0  0  0  0  0  0  0  0  0  0  0  0
   -0.8740   18.1180   -5.4050 C   0  0  0  0  0  0  0  0  0  0  0  0
  1  2  1  0
  2  3  2  0
  2  4  1  0
  4  5  2  0
  3  6  1  0
  5  7  1  0
  6  7  2  0
  5  8  1  0
  9  6  1  6
  7 10  1  0
  8 11  1  0
  9 12  1  0
  9 13  1  0
 11 14  2  0
 10 15  2  0
 11 15  1  0
 12 16  1  0
 13 17  1  0
 13 18  1  1
 16 19  1  0
 17 19  1  0
 17 20  1  1
 18 21  1  0
 20 21  1  0
 19 22  1  0
 23 22  1  6
 23 24  1  0
 23 25  1  0
 25 26  1  0
 24 27  1  0
 26 27  1  0
M  END
