mac-x0455-mac-x0132
     RDKit          3D

 25 27  0  0  0  0  0  0  0  0999 V2000
   -2.0510   13.6620   -2.3540 C   0  0  0  0  0  0  0  0  0  0  0  0
   -0.9610   13.9230   -3.4260 C   0  0  1  0  0  0  0  0  0  0  0  0
   -1.1840   15.1850   -4.1040 O   0  0  0  0  0  0  0  0  0  0  0  0
    0.3570   14.0430   -2.5820 C   0  0  0  0  0  0  0  0  0  0  0  0
   -0.8650   12.8000   -4.4480 C   0  0  0  0  0  0  0  0  0  0  0  0
    0.9570   15.0840   -2.3630 O   0  0  0  0  0  0  0  0  0  0  0  0
    0.8240   12.8680   -2.0750 O   0  0  0  0  0  0  0  0  0  0  0  0
   -1.4310   16.3270   -3.3020 C   0  0  0  0  0  0  0  0  0  0  0  0
   -1.9140   11.8590   -4.4860 C   0  0  0  0  0  0  0  0  0  0  0  0
    0.2060   12.6510   -5.3490 C   0  0  0  0  0  0  0  0  0  0  0  0
   -1.7500   15.8530   -1.8810 C   0  0  0  0  0  0  0  0  0  0  0  0
   -1.8950   10.7980   -5.3940 C   0  0  0  0  0  0  0  0  0  0  0  0
    0.2220   11.5860   -6.2580 C   0  0  0  0  0  0  0  0  0  0  0  0
   -0.8260   10.6590   -6.2800 C   0  0  0  0  0  0  0  0  0  0  0  0
   -3.2060   15.5400   -1.6640 C   0  0  0  0  0  0  0  0  0  0  0  0
   -4.1230   15.3700   -2.7160 C   0  0  0  0  0  0  0  0  0  0  0  0
   -3.6640   15.4050   -0.3670 C   0  0  0  0  0  0  0  0  0  0  0  0
   -5.0090   15.1050   -0.1050 C   0  0  0  0  0  0  0  0  0  0  0  0
   -5.4700   15.0720   -2.4380 C   0  0  0  0  0  0  0  0  0  0  0  0
   -5.5050   14.9600    1.1710 C   0  0  0  0  0  0  0  0  0  0  0  0
   -5.9310   14.9330   -1.1340 C   0  0  0  0  0  0  0  0  0  0  0  0
   -4.6540   15.1280    2.2450 N   0  0  0  0  0  0  0  0  0  0  0  0
   -7.2190   14.6440   -0.9000 N   0  0  0  0  0  0  0  0  0  0  0  0
   -6.7830   14.6690    1.4520 N   0  0  0  0  0  0  0  0  0  0  0  0
   -7.5780   14.5250    0.3930 C   0  0  0  0  0  0  0  0  0  0  0  0
  2  1  1  1
  2  3  1  0
  2  4  1  0
  2  5  1  0
  4  6  2  0
  4  7  1  0
  3  8  1  0
  5  9  2  0
  5 10  1  0
  8 11  1  0
  9 12  1  0
 10 13  2  0
 12 14  2  0
 13 14  1  0
 11 15  1  0
 15 16  2  0
 15 17  1  0
 17 18  2  0
 16 19  1  0
 18 20  1  0
 18 21  1  0
 19 21  2  0
 20 22  1  0
 21 23  1  0
 20 24  2  0
 23 25  2  0
 24 25  1  0
M  END
