mac-x0206-mac-x0415
     RDKit          3D

 26 28  0  0  0  0  0  0  0  0999 V2000
   -3.1250   15.1170   -0.4980 N   0  0  0  0  0  0  0  0  0  0  0  0
   -4.4090   14.9740   -0.9640 C   0  0  0  0  0  0  0  0  0  0  0  0
   -4.7820   14.9040   -2.1920 N   0  0  0  0  0  0  0  0  0  0  0  0
   -5.5440   14.8590    0.0150 C   0  0  0  0  0  0  0  0  0  0  0  0
   -3.8110   14.9750   -3.2680 C   0  0  0  0  0  0  0  0  0  0  0  0
   -6.8540   14.7070   -0.4470 C   0  0  0  0  0  0  0  0  0  0  0  0
   -5.3060   14.8980    1.3970 C   0  0  0  0  0  0  0  0  0  0  0  0
   -7.1080   14.6650   -1.7920 O   0  0  0  0  0  0  0  0  0  0  0  0
   -4.4660   14.7320   -4.6390 C   0  0  0  0  0  0  0  0  0  0  0  0
   -7.9170   14.5930    0.4490 C   0  0  0  0  0  0  0  0  0  0  0  0
   -6.3770   14.7850    2.2910 C   0  0  0  0  0  0  0  0  0  0  0  0
   -3.8340   15.5570   -5.6170 O   0  0  0  0  0  0  0  0  0  0  0  0
   -7.6770   14.6330    1.8220 C   0  0  0  0  0  0  0  0  0  0  0  0
   -2.4980   15.7010   -5.3800 C   0  0  0  0  0  0  0  0  0  0  0  0
   -1.9390   17.0080   -5.7650 C   0  0  0  0  0  0  0  0  0  0  0  0
   -1.7170   14.7340   -4.8340 C   0  0  0  0  0  0  0  0  0  0  0  0
   -0.3440   15.0220   -4.6280 C   0  0  0  0  0  0  0  0  0  0  0  0
   -0.7170   17.3770   -5.3340 C   0  0  0  0  0  0  0  0  0  0  0  0
    0.7040   14.2110   -4.5310 C   0  0  0  0  0  0  0  0  0  0  0  0
    0.0200   16.4400   -4.4420 C   0  0  2  0  0  0  0  0  0  0  0  0
    0.8950   12.7480   -4.5660 C   0  0  0  0  0  0  0  0  0  0  0  0
    1.7660   15.1920   -4.3820 C   0  0  0  0  0  0  0  0  0  0  0  0
    1.4510   16.4510   -4.3770 N   0  0  0  0  0  0  0  0  0  0  0  0
    0.7670   12.1870   -3.1550 C   0  0  0  0  0  0  0  0  0  0  0  0
    0.0960   11.0090   -3.0680 O   0  0  0  0  0  0  0  0  0  0  0  0
    1.2120   12.7160   -2.1430 O   0  0  0  0  0  0  0  0  0  0  0  0
  1  2  1  0
  2  3  2  3
  2  4  1  0
  3  5  1  0
  4  6  2  0
  4  7  1  0
  6  8  1  0
  5  9  1  0
  6 10  1  0
  7 11  2  0
  9 12  1  0
 10 13  2  0
 11 13  1  0
 12 14  1  0
 14 15  1  0
 14 16  2  0
 16 17  1  0
 15 18  2  0
 17 19  2  0
 17 20  1  0
 20 18  1  6
 19 21  1  0
 19 22  1  0
 20 23  1  0
 22 23  2  0
 21 24  1  0
 24 25  1  0
 24 26  2  0
M  END
