mac-x0365-mac-x0417
     RDKit          3D

 26 28  0  0  0  0  0  0  0  0999 V2000
   -0.7540   14.9100   -1.3360 O   0  0  0  0  0  0  0  0  0  0  0  0
   -1.7120   14.9510   -2.2730 C   0  0  0  0  0  0  0  0  0  0  0  0
   -1.3140   14.9920   -3.4940 N   0  0  0  0  0  0  0  0  0  0  0  0
   -3.0470   14.9680   -1.6450 C   0  0  0  0  0  0  0  0  0  0  0  0
    0.1390   15.0210   -3.7530 C   0  0  0  0  0  0  0  0  0  0  0  0
   -4.1800   15.0650   -2.4510 C   0  0  0  0  0  0  0  0  0  0  0  0
   -3.1740   14.8970   -0.2450 C   0  0  0  0  0  0  0  0  0  0  0  0
    0.5170   14.0360   -4.8650 C   0  0  0  0  0  0  0  0  0  0  0  0
   -5.4290   15.0870   -1.8530 C   0  0  0  0  0  0  0  0  0  0  0  0
   -4.4410   14.9200    0.3420 C   0  0  0  0  0  0  0  0  0  0  0  0
   -6.5300   15.1770   -2.6080 F   0  0  0  0  0  0  0  0  0  0  0  0
    0.0680   12.5950   -4.5730 C   0  0  2  0  0  0  0  0  0  0  0  0
   -5.5640   15.0140   -0.4730 C   0  0  0  0  0  0  0  0  0  0  0  0
   -6.7990   15.0300    0.1070 O   0  0  0  0  0  0  0  0  0  0  0  0
    0.7700   11.9570   -3.3820 C   0  0  0  0  0  0  0  0  0  0  0  0
    0.1340   11.6790   -5.7540 C   0  0  0  0  0  0  0  0  0  0  0  0
    1.6090   12.7670   -2.7100 O   0  0  0  0  0  0  0  0  0  0  0  0
    0.6420   10.8080   -2.9860 O   0  0  0  0  0  0  0  0  0  0  0  0
    1.1510   11.7030   -6.6280 N   0  0  0  0  0  0  0  0  0  0  0  0
   -0.8210   10.6990   -6.0960 C   0  0  0  0  0  0  0  0  0  0  0  0
    0.8530   10.7220   -7.5700 O   0  0  0  0  0  0  0  0  0  0  0  0
   -0.3250   10.1230   -7.2450 C   0  0  0  0  0  0  0  0  0  0  0  0
   -2.0370   10.2400   -5.5650 C   0  0  0  0  0  0  0  0  0  0  0  0
   -0.9590    9.0930   -7.9350 C   0  0  0  0  0  0  0  0  0  0  0  0
   -2.7020    9.2060   -6.2310 C   0  0  0  0  0  0  0  0  0  0  0  0
   -2.1730    8.6440   -7.3930 C   0  0  0  0  0  0  0  0  0  0  0  0
  1  2  1  0
  2  3  2  3
  2  4  1  0
  3  5  1  0
  4  6  2  0
  4  7  1  0
  5  8  1  0
  6  9  1  0
  7 10  2  0
  9 11  1  0
 12  8  1  6
  9 13  2  0
 10 13  1  0
 13 14  1  0
 12 15  1  0
 12 16  1  0
 15 17  1  0
 15 18  2  0
 16 19  2  0
 16 20  1  0
 19 21  1  0
 20 22  2  0
 21 22  1  0
 20 23  1  0
 22 24  1  0
 23 25  2  0
 24 26  2  0
 25 26  1  0
M  END
