mac-x0161-diamond-x0900_0_A
     RDKit          3D

 23 26  0  0  0  0  0  0  0  0999 V2000
   -3.7450   16.2870    1.2900 N   0  0  0  0  0  0  0  0  0  0  0  0
   -3.4270   14.8990    0.9700 C   0  0  2  0  0  0  0  0  0  0  0  0
   -2.0050   14.6650    0.5530 C   0  0  1  0  0  0  0  0  0  0  0  0
   -4.4210   14.4360   -0.0230 C   0  0  2  0  0  0  0  0  0  0  0  0
   -4.4910   15.3360   -1.2680 C   0  0  1  0  0  0  0  0  0  0  0  0
   -1.5380   15.3810   -0.7190 C   0  0  2  0  0  0  0  0  0  0  0  0
   -1.0330   15.0650    1.5060 N   0  0  0  0  0  0  0  0  0  0  0  0
   -5.8520   14.3850    0.5090 C   0  0  0  0  0  0  0  0  0  0  0  0
   -3.4040   15.2030   -2.3540 C   0  0  0  0  0  0  0  0  0  0  0  0
   -2.0290   14.8530   -1.9640 N   0  0  0  0  0  0  0  0  0  0  0  0
   -0.1010   15.3370   -0.6050 N   0  0  0  0  0  0  0  0  0  0  0  0
    0.1730   14.9190    0.7610 C   0  0  0  0  0  0  0  0  0  0  0  0
   -5.7870   14.9970   -1.7380 N   0  0  0  0  0  0  0  0  0  0  0  0
   -6.6260   14.9410   -0.6520 C   0  0  0  0  0  0  0  0  0  0  0  0
   -1.0560   14.8680   -3.0700 C   0  0  0  0  0  0  0  0  0  0  0  0
   -7.7830   15.2820   -0.6540 O   0  0  0  0  0  0  0  0  0  0  0  0
   -0.7680   13.4810   -3.5120 C   0  0  0  0  0  0  0  0  0  0  0  0
   -1.1780   12.7020   -4.5690 C   0  0  0  0  0  0  0  0  0  0  0  0
    0.0850   12.7580   -2.7300 O   0  0  0  0  0  0  0  0  0  0  0  0
    0.2440   11.4920   -3.2670 N   0  0  0  0  0  0  0  0  0  0  0  0
   -0.5220   11.4830   -4.3600 C   0  0  0  0  0  0  0  0  0  0  0  0
   -0.6200   10.3900   -5.1500 O   0  0  0  0  0  0  0  0  0  0  0  0
   -1.7670   10.3770   -5.9930 C   0  0  0  0  0  0  0  0  0  0  0  0
  2  1  1  6
  2  3  1  0
  2  4  1  0
  4  5  1  0
  3  6  1  0
  3  7  1  1
  4  8  1  1
  5  9  1  6
  6 10  1  0
  9 10  1  0
  6 11  1  6
  7 12  1  0
 11 12  1  0
  5 13  1  0
  8 14  1  0
 13 14  1  0
 10 15  1  0
 14 16  2  0
 15 17  1  0
 17 18  2  0
 17 19  1  0
 19 20  1  0
 18 21  1  0
 20 21  2  0
 21 22  1  0
 22 23  1  0
M  END
