mac-x0212-mac-x0398
     RDKit          3D

 16 16  0  0  0  0  0  0  0  0999 V2000
   -6.4600   12.7250    1.3870 C   0  0  0  0  0  0  0  0  0  0  0  0
   -6.9470   14.4010    1.0280 S   0  0  0  0  0  0  0  0  0  0  0  0
   -7.8440   14.8840    2.0570 O   0  0  0  0  0  0  0  0  0  0  0  0
   -7.3250   14.4880   -0.3640 O   0  0  0  0  0  0  0  0  0  0  0  0
   -5.4400   15.1920    1.1690 N   0  0  0  0  0  0  0  0  0  0  0  0
   -4.4950   15.0110    0.0950 C   0  0  0  0  0  0  0  0  0  0  0  0
   -3.2080   14.5890    0.4000 C   0  0  0  0  0  0  0  0  0  0  0  0
   -4.8390   15.2490   -1.2560 C   0  0  0  0  0  0  0  0  0  0  0  0
   -6.0910   15.6700   -1.6350 O   0  0  0  0  0  0  0  0  0  0  0  0
   -2.2760   14.3910   -0.6260 C   0  0  0  0  0  0  0  0  0  0  0  0
   -3.9000   15.0540   -2.2790 C   0  0  0  0  0  0  0  0  0  0  0  0
   -2.6120   14.6230   -1.9730 C   0  0  0  0  0  0  0  0  0  0  0  0
   -4.2820   15.2910   -3.5680 O   0  0  0  0  0  0  0  0  0  0  0  0
   -1.5970   14.3990   -3.0420 C   0  0  0  0  0  0  0  0  0  0  0  0
   -0.4340   14.0740   -2.9110 O   0  0  0  0  0  0  0  0  0  0  0  0
   -2.1020   14.5930   -4.2800 O   0  0  0  0  0  0  0  0  0  0  0  0
  1  2  1  0
  2  3  2  0
  2  4  2  0
  2  5  1  0
  5  6  1  0
  6  7  2  0
  6  8  1  0
  8  9  1  0
  7 10  1  0
  8 11  2  0
 10 12  2  0
 11 12  1  0
 11 13  1  0
 12 14  1  0
 14 15  2  0
 14 16  1  0
M  END
