mac-x0159-mac-x0271
     RDKit          3D

 30 34  0  0  0  0  0  0  0  0999 V2000
   -4.6430   14.6820    1.2020 N   0  0  0  0  0  0  0  0  0  0  0  0
   -3.4700   15.3290    0.6470 C   0  0  1  0  0  0  0  0  0  0  0  0
   -2.3060   14.3540    0.3110 C   0  0  1  0  0  0  0  0  0  0  0  0
   -4.0050   15.9770   -0.4990 N   0  0  0  0  0  0  0  0  0  0  0  0
   -3.8210   15.2040   -1.7030 C   0  0  0  0  0  0  0  0  0  0  0  0
   -1.6150   14.5870   -1.0770 C   0  0  1  0  0  0  0  0  0  0  0  0
   -1.2160   14.4770    1.3110 N   0  0  0  0  0  0  0  0  0  0  0  0
   -2.4430   15.2040   -2.0760 N   0  0  0  0  0  0  0  0  0  0  0  0
   -0.3550   15.2090   -0.7380 N   0  0  0  0  0  0  0  0  0  0  0  0
    0.0030   14.6730    0.5480 C   0  0  0  0  0  0  0  0  0  0  0  0
   -2.2180   14.8060   -3.4860 C   0  0  1  0  0  0  0  0  0  0  0  0
   -3.5410   14.3200   -4.1840 C   0  0  0  0  0  0  0  0  0  0  0  0
   -1.3930   15.8160   -4.2990 C   0  0  0  0  0  0  0  0  0  0  0  0
   -4.7620   15.0310   -3.8480 O   0  0  0  0  0  0  0  0  0  0  0  0
   -0.0040   15.9270   -4.3060 C   0  0  0  0  0  0  0  0  0  0  0  0
   -2.0190   16.7510   -5.1220 N   0  0  0  0  0  0  0  0  0  0  0  0
   -1.1370   17.5310   -5.7110 C   0  0  0  0  0  0  0  0  0  0  0  0
    0.5030   17.2050   -5.3350 S   0  0  0  0  0  0  0  0  0  0  0  0
   -5.3540   14.7040   -2.6320 C   0  0  0  0  0  0  0  0  0  0  0  0
   -1.4860   18.6320   -6.6480 C   0  0  0  0  0  0  0  0  0  0  0  0
   -6.4860   15.3900   -2.1830 C   0  0  0  0  0  0  0  0  0  0  0  0
   -4.8230   13.6880   -1.8450 C   0  0  0  0  0  0  0  0  0  0  0  0
   -7.0550   15.0480   -0.9610 C   0  0  0  0  0  0  0  0  0  0  0  0
   -5.4010   13.3480   -0.6130 C   0  0  0  0  0  0  0  0  0  0  0  0
   -6.5260   14.0370   -0.1630 C   0  0  0  0  0  0  0  0  0  0  0  0
   -8.1980   15.7640   -0.5430 O   0  0  0  0  0  0  0  0  0  0  0  0
   -7.1640   13.7390    1.1110 C   0  0  0  0  0  0  0  0  0  0  0  0
   -8.9700   15.2940    0.5110 C   0  0  0  0  0  0  0  0  0  0  0  0
  -10.1340   15.6440    0.6890 O   0  0  0  0  0  0  0  0  0  0  0  0
   -8.3200   14.3400    1.4210 C   0  0  0  0  0  0  0  0  0  0  0  0
  2  1  1  6
  2  3  1  0
  2  4  1  0
  4  5  1  0
  3  6  1  0
  3  7  1  1
  5  8  1  0
  6  8  1  0
  6  9  1  1
  7 10  1  0
  9 10  1  0
  8 11  1  0
 11 12  1  6
 11 13  1  0
 12 14  1  0
 13 15  2  0
 13 16  1  0
 16 17  2  0
 15 18  1  0
 17 18  1  0
 14 19  1  0
 17 20  1  0
 19 21  2  0
 19 22  1  0
 21 23  1  0
 22 24  2  0
 23 25  2  0
 24 25  1  0
 23 26  1  0
 25 27  1  0
 26 28  1  0
 28 29  2  0
 27 30  2  0
 28 30  1  0
M  END
