mac-x0302-mac-x0346
     RDKit          3D

 17 17  0  0  0  0  0  0  0  0999 V2000
    1.6040   14.2610   -3.7650 O   0  0  0  0  0  0  0  0  0  0  0  0
    0.5920   14.0710   -2.9060 C   0  0  0  0  0  0  0  0  0  0  0  0
    0.7880   13.5630   -1.8150 O   0  0  0  0  0  0  0  0  0  0  0  0
   -0.7470   14.5450   -3.4290 C   0  0  0  0  0  0  0  0  0  0  0  0
   -1.6680   14.5360   -2.3200 N   0  0  0  0  0  0  0  0  0  0  0  0
   -2.9360   15.0440   -2.4260 C   0  0  0  0  0  0  0  0  0  0  0  0
   -3.4120   15.4820   -3.4650 O   0  0  0  0  0  0  0  0  0  0  0  0
   -3.6990   15.0320   -1.1600 C   0  0  0  0  0  0  0  0  0  0  0  0
   -5.0850   15.0120   -1.2180 C   0  0  0  0  0  0  0  0  0  0  0  0
   -3.0430   15.0360    0.0740 C   0  0  0  0  0  0  0  0  0  0  0  0
   -5.8300   14.9930   -0.0450 C   0  0  0  0  0  0  0  0  0  0  0  0
   -3.7820   15.0200    1.2480 C   0  0  0  0  0  0  0  0  0  0  0  0
   -7.2210   14.9670   -0.0950 N   0  0  0  0  0  0  0  0  0  0  0  0
   -5.1680   14.9990    1.1850 C   0  0  0  0  0  0  0  0  0  0  0  0
   -7.8810   14.4500    1.0440 O   0  0  0  0  0  0  0  0  0  0  0  0
   -7.9330   14.9470   -1.2500 C   0  0  0  0  0  0  0  0  0  0  0  0
   -7.5450   14.6210   -2.3560 O   0  0  0  0  0  0  0  0  0  0  0  0
  1  2  1  0
  2  3  2  0
  2  4  1  0
  4  5  1  0
  5  6  1  0
  6  7  2  0
  6  8  1  0
  8  9  2  0
  8 10  1  0
  9 11  1  0
 10 12  2  0
 11 13  1  0
 11 14  2  0
 12 14  1  0
 13 15  1  0
 13 16  1  0
 16 17  2  0
M  END
