mac-x0433-mac-x0212
     RDKit          3D

 22 23  0  0  0  0  0  0  0  0999 V2000
   -4.8230   16.0210   -0.5420 C   0  0  0  0  0  0  0  0  0  0  0  0
   -6.0690   15.2720   -0.3910 C   0  0  0  0  0  0  0  0  0  0  0  0
   -6.0360   14.1520    0.2910 C   0  0  0  0  0  0  0  0  0  0  0  0
   -7.2030   15.7170   -0.9280 N   0  0  0  0  0  0  0  0  0  0  0  0
   -8.4850   15.2670   -0.9690 C   0  0  0  0  0  0  0  0  0  0  0  0
   -7.1760   13.5740    0.3510 C   0  0  0  0  0  0  0  0  0  0  0  0
   -7.0240   12.0980    1.2590 S   0  0  0  0  0  0  0  0  0  0  0  0
   -8.4150   16.4990   -1.6740 N   0  0  0  0  0  0  0  0  0  0  0  0
   -8.2500   14.0830   -0.2170 N   0  0  0  0  0  0  0  0  0  0  0  0
   -7.4640   12.2000    2.8610 C   0  0  0  0  0  0  0  0  0  0  0  0
   -8.3300   11.7400    0.7800 O   0  0  0  0  0  0  0  0  0  0  0  0
   -6.5240   10.7470    0.5780 O   0  0  0  0  0  0  0  0  0  0  0  0
   -5.4560   12.4940    1.4180 N   0  0  0  0  0  0  0  0  0  0  0  0
   -4.5770   13.2170    0.4680 C   0  0  0  0  0  0  0  0  0  0  0  0
   -3.4350   13.8210    0.9730 C   0  0  0  0  0  0  0  0  0  0  0  0
   -4.8380   13.3160   -0.8670 C   0  0  0  0  0  0  0  0  0  0  0  0
   -2.5780   14.5090    0.1360 C   0  0  0  0  0  0  0  0  0  0  0  0
   -3.9650   14.0150   -1.6900 C   0  0  0  0  0  0  0  0  0  0  0  0
   -2.8130   14.6310   -1.2320 C   0  0  0  0  0  0  0  0  0  0  0  0
   -1.8950   15.3550   -2.0950 C   0  0  0  0  0  0  0  0  0  0  0  0
   -0.8960   15.9010   -1.5810 O   0  0  0  0  0  0  0  0  0  0  0  0
   -2.0730   15.4540   -3.4590 O   0  0  0  0  0  0  0  0  0  0  0  0
  1  2  1  0
  2  3  2  0
  2  4  1  0
  4  5  2  0
  3  6  1  0
  6  7  1  0
  5  8  1  0
  5  9  1  0
  6  9  2  0
  7 10  1  0
  7 11  2  0
  7 12  1  0
  7 13  1  0
 13 14  1  0
 14 15  2  0
 14 16  1  0
 15 17  1  0
 16 18  2  0
 17 19  2  0
 18 19  1  0
 19 20  1  0
 20 21  2  0
 20 22  1  0
M  END
