mac-x0572-mac-x0321
     RDKit          3D

 17 18  0  0  0  0  0  0  0  0999 V2000
   -7.9990   14.6570    3.0710 C   0  0  0  0  0  0  0  0  0  0  0  0
   -7.3030   14.7110    1.7280 C   0  0  0  0  0  0  0  0  0  0  0  0
   -5.9580   14.9660    1.8050 N   0  0  0  0  0  0  0  0  0  0  0  0
   -7.9450   14.5360    0.5610 C   0  0  0  0  0  0  0  0  0  0  0  0
   -9.2960   14.2910    0.4530 O   0  0  0  0  0  0  0  0  0  0  0  0
   -7.1320   14.6120   -0.6910 C   0  0  0  0  0  0  0  0  0  0  0  0
   -5.1910   14.7630    0.7800 C   0  0  0  0  0  0  0  0  0  0  0  0
   -7.6610   14.9410   -1.7450 O   0  0  0  0  0  0  0  0  0  0  0  0
   -5.6810   14.2390   -0.5250 C   0  0  2  0  0  0  0  0  0  0  0  0
   -3.7680   15.0270    0.8830 C   0  0  0  0  0  0  0  0  0  0  0  0
   -3.2790   15.3540    2.4060 Cl  0  0  0  0  0  0  0  0  0  0  0  0
   -2.9440   15.0030   -0.1450 C   0  0  0  0  0  0  0  0  0  0  0  0
   -4.6940   14.3950   -1.6840 C   0  0  0  0  0  0  0  0  0  0  0  0
   -3.3890   14.7290   -1.4830 C   0  0  0  0  0  0  0  0  0  0  0  0
   -2.3520   14.8090   -2.5760 C   0  0  0  0  0  0  0  0  0  0  0  0
   -1.0820   14.7770   -2.1070 O   0  0  0  0  0  0  0  0  0  0  0  0
   -2.6030   14.8790   -3.7690 O   0  0  0  0  0  0  0  0  0  0  0  0
  1  2  1  0
  2  3  1  0
  2  4  2  0
  4  5  1  0
  4  6  1  0
  3  7  2  0
  6  8  2  0
  6  9  1  0
  7  9  1  0
  7 10  1  0
 10 11  1  0
 10 12  2  0
  9 13  1  6
 12 14  1  0
 13 14  2  0
 14 15  1  0
 15 16  1  0
 15 17  2  0
M  END
