mac-x0348-mac-x0415
     RDKit          3D

 19 21  0  0  0  0  0  0  0  0999 V2000
    0.2730   18.3580   -5.9580 C   0  0  0  0  0  0  0  0  0  0  0  0
   -0.2030   17.2910   -5.0990 N   0  0  0  0  0  0  0  0  0  0  0  0
    0.6230   16.1050   -5.0540 C   0  0  2  0  0  0  0  0  0  0  0  0
   -1.6330   16.8640   -5.0680 C   0  0  2  0  0  0  0  0  0  0  0  0
   -0.1850   14.9890   -4.3210 C   0  0  2  0  0  0  0  0  0  0  0  0
   -1.6240   15.3360   -4.7250 C   0  0  2  0  0  0  0  0  0  0  0  0
   -2.6580   16.9020   -6.1420 C   0  0  0  0  0  0  0  0  0  0  0  0
    1.8030   15.7970   -4.2890 N   0  0  0  0  0  0  0  0  0  0  0  0
    0.1810   14.9280   -2.8310 C   0  0  0  0  0  0  0  0  0  0  0  0
   -2.5880   14.1490   -6.0300 Br  0  0  0  0  0  0  0  0  0  0  0  0
   -2.7960   15.0360   -3.9380 C   0  0  0  0  0  0  0  0  0  0  0  0
   -3.7660   16.1460   -5.8820 C   0  0  0  0  0  0  0  0  0  0  0  0
    0.7270   13.8810   -4.7410 C   0  0  0  0  0  0  0  0  0  0  0  0
    1.9430   14.4510   -4.6220 C   0  0  0  0  0  0  0  0  0  0  0  0
    1.2180   13.8130   -2.6120 C   0  0  0  0  0  0  0  0  0  0  0  0
   -3.8870   15.4270   -4.5870 C   0  0  0  0  0  0  0  0  0  0  0  0
    0.6080   12.5950   -2.0020 C   0  0  0  0  0  0  0  0  0  0  0  0
    0.1200   12.5850   -0.9030 O   0  0  0  0  0  0  0  0  0  0  0  0
    0.6270   11.4790   -2.7560 O   0  0  0  0  0  0  0  0  0  0  0  0
  1  2  1  0
  2  3  1  0
  2  4  1  0
  3  5  1  0
  4  6  1  0
  5  6  1  0
  4  7  1  6
  3  8  1  1
  5  9  1  1
  6 10  1  6
  6 11  1  0
  7 12  2  0
  5 13  1  0
  8 14  1  0
 13 14  2  0
  9 15  1  0
 11 16  2  0
 12 16  1  0
 15 17  1  0
 17 18  2  0
 17 19  1  0
M  END
