mac-x0380-mac-x0555
     RDKit          3D

 14 15  0  0  0  0  0  0  0  0999 V2000
   -1.3630   14.6860   -2.5120 O   0  0  0  0  0  0  0  0  0  0  0  0
   -2.6580   14.9750   -2.7630 C   0  0  0  0  0  0  0  0  0  0  0  0
   -3.0880   15.2060   -3.8810 O   0  0  0  0  0  0  0  0  0  0  0  0
   -3.5220   14.9830   -1.5550 C   0  0  0  0  0  0  0  0  0  0  0  0
   -4.9110   15.0390   -1.6650 C   0  0  0  0  0  0  0  0  0  0  0  0
   -2.9250   14.9280   -0.2850 C   0  0  0  0  0  0  0  0  0  0  0  0
   -5.7100   15.0340   -0.5210 C   0  0  0  0  0  0  0  0  0  0  0  0
   -3.7220   14.9270    0.8650 C   0  0  0  0  0  0  0  0  0  0  0  0
   -5.1150   14.9760    0.7490 C   0  0  0  0  0  0  0  0  0  0  0  0
   -7.4730   15.0910   -0.7150 S   0  0  0  0  0  0  0  0  0  0  0  0
   -5.8840   14.9580    1.9290 N   0  0  0  0  0  0  0  0  0  0  0  0
   -7.8840   14.1190    0.7480 C   0  0  0  0  0  0  0  0  0  0  0  0
   -7.2130   14.6280    1.9910 C   0  0  0  0  0  0  0  0  0  0  0  0
   -7.8420   14.7580    3.0490 O   0  0  0  0  0  0  0  0  0  0  0  0
  1  2  1  0
  2  3  2  0
  2  4  1  0
  4  5  2  0
  4  6  1  0
  5  7  1  0
  6  8  2  0
  7  9  2  0
  8  9  1  0
  7 10  1  0
  9 11  1  0
 10 12  1  0
 11 13  1  0
 12 13  1  0
 13 14  2  0
M  END
