mac-x0282-mac-x0433
     RDKit          3D

 18 20  0  0  0  0  0  0  0  0999 V2000
   -2.9540   16.2940    0.9260 C   0  0  0  0  0  0  0  0  0  0  0  0
   -4.3020   15.8620    0.2280 C   0  0  0  0  0  0  0  0  0  0  0  0
   -5.3510   15.3810    0.9960 C   0  0  0  0  0  0  0  0  0  0  0  0
   -1.8610   15.3270    0.7130 N   0  0  0  0  0  0  0  0  0  0  0  0
   -2.5660   14.3020    0.7410 C   0  0  0  0  0  0  0  0  0  0  0  0
   -0.6680   15.0320    1.2740 C   0  0  0  0  0  0  0  0  0  0  0  0
   -4.4850   15.9550   -1.1480 N   0  0  0  0  0  0  0  0  0  0  0  0
   -2.4220   14.7750   -0.9100 C   0  0  0  0  0  0  0  0  0  0  0  0
   -3.3770   13.3130    0.5900 N   0  0  0  0  0  0  0  0  0  0  0  0
   -0.0780   14.6420    0.2690 C   0  0  0  0  0  0  0  0  0  0  0  0
   -5.6710   15.5780   -1.6850 C   0  0  0  0  0  0  0  0  0  0  0  0
   -6.5240   15.0120    0.3620 C   0  0  0  0  0  0  0  0  0  0  0  0
   -7.6840   14.4920    1.1570 C   0  0  0  0  0  0  0  0  0  0  0  0
   -5.8780   15.6440   -3.0420 N   0  0  0  0  0  0  0  0  0  0  0  0
   -4.2520   13.7810   -0.2890 C   0  0  0  0  0  0  0  0  0  0  0  0
   -3.8430   14.6890   -1.0270 C   0  0  0  0  0  0  0  0  0  0  0  0
   -1.0560   14.8590   -0.7970 C   0  0  0  0  0  0  0  0  0  0  0  0
   -6.7200   15.1040   -0.9680 N   0  0  0  0  0  0  0  0  0  0  0  0
  1  2  1  0
  2  3  2  0
  1  4  1  0
  4  5  1  0
  4  6  1  0
  2  7  1  0
  5  8  1  0
  5  9  2  0
  6 10  2  0
  7 11  2  0
  3 12  1  0
 12 13  1  0
 11 14  1  0
  9 15  1  0
  8 16  1  0
 15 16  2  0
  8 17  2  0
 10 17  1  0
 11 18  1  0
 12 18  2  0
M  END
