mac-x0379-mac-x0213
     RDKit          3D

 20 22  0  0  0  0  0  0  0  0999 V2000
   -6.1540   15.0300   -0.3960 C   0  0  0  0  0  0  0  0  0  0  0  0
   -4.8690   15.0300   -1.1230 C   0  0  0  0  0  0  0  0  0  0  0  0
   -4.7400   14.9040   -2.4270 N   0  0  0  0  0  0  0  0  0  0  0  0
   -3.4300   15.2030   -0.2350 S   0  0  0  0  0  0  0  0  0  0  0  0
   -3.4060   14.9450   -2.7580 C   0  0  0  0  0  0  0  0  0  0  0  0
   -2.5530   15.0990   -1.6890 C   0  0  0  0  0  0  0  0  0  0  0  0
   -1.0890   15.1870   -1.6040 C   0  0  1  0  0  0  0  0  0  0  0  0
   -0.5150   14.1690   -0.8220 O   0  0  0  0  0  0  0  0  0  0  0  0
   -0.2470   15.3690   -2.8090 C   0  0  1  0  0  0  0  0  0  0  0  0
    0.8530   14.4080   -3.1910 C   0  0  1  0  0  0  0  0  0  0  0  0
   -0.5620   16.2380   -3.9540 C   0  0  0  0  0  0  0  0  0  0  0  0
    0.5810   12.9230   -3.1430 C   0  0  0  0  0  0  0  0  0  0  0  0
    0.5180   16.1620   -4.8000 C   0  0  0  0  0  0  0  0  0  0  0  0
    1.5530   15.1330   -4.3560 C   0  0  0  0  0  0  0  0  0  0  0  0
   -1.6530   17.0320   -4.1960 C   0  0  0  0  0  0  0  0  0  0  0  0
   -0.0880   12.3860   -4.1710 O   0  0  0  0  0  0  0  0  0  0  0  0
    0.9170   12.1970   -2.2270 O   0  0  0  0  0  0  0  0  0  0  0  0
   -1.6450   17.8380   -5.3280 C   0  0  0  0  0  0  0  0  0  0  0  0
    0.5460   16.9690   -5.8950 C   0  0  0  0  0  0  0  0  0  0  0  0
   -0.5330   17.8140   -6.1690 C   0  0  0  0  0  0  0  0  0  0  0  0
  1  2  1  0
  2  3  2  0
  2  4  1  0
  3  5  1  0
  4  6  1  0
  5  6  2  0
  6  7  1  0
  7  8  1  6
  7  9  1  0
  9 10  1  0
  9 11  1  6
 10 12  1  6
 11 13  2  0
 10 14  1  0
 13 14  1  0
 11 15  1  0
 12 16  1  0
 12 17  2  0
 15 18  2  0
 13 19  1  0
 18 20  1  0
 19 20  2  0
M  END
