mac-x0437-mac-x0527
     RDKit          3D

 24 26  0  0  0  0  0  0  0  0999 V2000
    1.4020   13.0370   -2.0860 O   0  0  0  0  0  0  0  0  0  0  0  0
    1.3320   12.3420   -3.2330 C   0  0  0  0  0  0  0  0  0  0  0  0
    0.8320   11.2320   -3.2270 O   0  0  0  0  0  0  0  0  0  0  0  0
    1.9160   13.0840   -4.4110 C   0  0  0  0  0  0  0  0  0  0  0  0
    1.0090   13.2050   -5.6340 C   0  0  0  0  0  0  0  0  0  0  0  0
   -0.1120   12.2940   -5.6480 N   0  0  0  0  0  0  0  0  0  0  0  0
   -1.2430   12.3980   -4.8790 C   0  0  0  0  0  0  0  0  0  0  0  0
   -0.1830   11.1930   -6.4530 C   0  0  0  0  0  0  0  0  0  0  0  0
   -1.3710   13.5850   -3.9140 C   0  0  0  0  0  0  0  0  0  0  0  0
   -2.0580   11.3610   -5.1560 N   0  0  0  0  0  0  0  0  0  0  0  0
   -1.3990   10.6090   -6.1340 C   0  0  0  0  0  0  0  0  0  0  0  0
    0.6990   10.6750   -7.4070 C   0  0  0  0  0  0  0  0  0  0  0  0
   -2.5800   13.6440   -3.1140 N   0  0  0  0  0  0  0  0  0  0  0  0
   -1.7600    9.4210   -6.8080 C   0  0  0  0  0  0  0  0  0  0  0  0
    0.3290    9.5050   -8.0640 C   0  0  0  0  0  0  0  0  0  0  0  0
   -3.2320   14.8260   -2.8060 C   0  0  0  0  0  0  0  0  0  0  0  0
   -0.8840    8.8800   -7.7720 C   0  0  0  0  0  0  0  0  0  0  0  0
   -3.3450   15.7420   -3.6050 O   0  0  0  0  0  0  0  0  0  0  0  0
   -3.8200   14.9200   -1.4280 C   0  0  0  0  0  0  0  0  0  0  0  0
   -5.1890   15.0630   -1.2770 C   0  0  0  0  0  0  0  0  0  0  0  0
   -2.9710   14.8570   -0.3560 N   0  0  0  0  0  0  0  0  0  0  0  0
   -5.7790   15.1460   -0.0580 N   0  0  0  0  0  0  0  0  0  0  0  0
   -3.5710   14.9430    0.8580 C   0  0  0  0  0  0  0  0  0  0  0  0
   -4.9400   15.0830    1.0030 C   0  0  0  0  0  0  0  0  0  0  0  0
  1  2  1  0
  2  3  2  0
  2  4  1  0
  4  5  1  0
  5  6  1  0
  6  7  1  0
  6  8  1  0
  7  9  1  0
  7 10  2  0
  8 11  2  0
 10 11  1  0
  8 12  1  0
  9 13  1  0
 11 14  1  0
 12 15  2  0
 13 16  1  0
 14 17  2  0
 15 17  1  0
 16 18  2  0
 16 19  1  0
 19 20  2  0
 19 21  1  0
 20 22  1  0
 21 23  2  0
 22 24  2  0
 23 24  1  0
M  END
