mac-x0565-mac-x0568
     RDKit          3D

 22 24  0  0  0  0  0  0  0  0999 V2000
   -5.4290   15.6940    0.0620 O   0  0  0  0  0  0  0  0  0  0  0  0
   -5.8670   15.1910   -1.1090 C   0  0  0  0  0  0  0  0  0  0  0  0
   -7.0340   14.9190   -1.3370 O   0  0  0  0  0  0  0  0  0  0  0  0
   -4.7470   15.0360   -2.0550 C   0  0  0  0  0  0  0  0  0  0  0  0
   -3.3830   14.9410   -1.6950 C   0  0  0  0  0  0  0  0  0  0  0  0
   -5.1240   14.9850   -3.4020 C   0  0  0  0  0  0  0  0  0  0  0  0
   -2.8040   14.9330   -0.4390 N   0  0  0  0  0  0  0  0  0  0  0  0
   -2.4810   14.8350   -2.7210 C   0  0  0  0  0  0  0  0  0  0  0  0
   -4.1690   14.8680   -4.4120 C   0  0  0  0  0  0  0  0  0  0  0  0
   -3.4070   14.6860    0.6550 C   0  0  0  0  0  0  0  0  0  0  0  0
   -2.8540   14.8030   -4.0340 C   0  0  0  0  0  0  0  0  0  0  0  0
   -1.1250   14.7440   -2.5720 O   0  0  0  0  0  0  0  0  0  0  0  0
   -2.6250   14.7160    1.7710 N   0  0  0  0  0  0  0  0  0  0  0  0
   -1.7820   14.7010   -4.8660 O   0  0  0  0  0  0  0  0  0  0  0  0
   -0.7140   14.9540   -3.9290 C   0  0  0  0  0  0  0  0  0  0  0  0
   -4.8310   14.3870    0.8150 C   0  0  0  0  0  0  0  0  0  0  0  0
   -5.5640   13.6170   -0.0830 C   0  0  0  0  0  0  0  0  0  0  0  0
   -5.4670   14.9130    1.9180 C   0  0  0  0  0  0  0  0  0  0  0  0
   -6.8930   13.3700    0.0760 N   0  0  0  0  0  0  0  0  0  0  0  0
   -6.8170   14.6710    2.0990 C   0  0  0  0  0  0  0  0  0  0  0  0
   -7.4940   13.9060    1.1640 C   0  0  0  0  0  0  0  0  0  0  0  0
   -8.9550   13.6520    1.3510 C   0  0  0  0  0  0  0  0  0  0  0  0
  1  2  1  0
  2  3  2  0
  2  4  1  0
  4  5  2  0
  4  6  1  0
  5  7  1  0
  5  8  1  0
  6  9  2  0
  7 10  2  3
  8 11  2  0
  9 11  1  0
  8 12  1  0
 10 13  1  0
 11 14  1  0
 12 15  1  0
 14 15  1  0
 10 16  1  0
 16 17  2  0
 16 18  1  0
 17 19  1  0
 18 20  2  0
 19 21  2  0
 20 21  1  0
 21 22  1  0
M  END
