mac-x0123-mac-x0375
     RDKit          3D

 27 30  0  0  0  0  0  0  0  0999 V2000
   -3.6930   14.7490    1.8610 N   0  0  0  0  0  0  0  0  0  0  0  0
   -4.7250   14.6910    0.9290 C   0  0  0  0  0  0  0  0  0  0  0  0
   -6.0440   14.5860    1.1700 C   0  0  0  0  0  0  0  0  0  0  0  0
   -4.3420   14.7270   -0.4250 N   0  0  0  0  0  0  0  0  0  0  0  0
   -5.2560   14.6820   -1.4830 C   0  0  0  0  0  0  0  0  0  0  0  0
   -6.9540   14.5560   -0.0110 C   0  0  0  0  0  0  0  0  0  0  0  0
   -6.8770   14.4850    2.3950 C   0  0  0  0  0  0  0  0  0  0  0  0
   -3.0840   14.7910   -0.9010 N   0  0  0  0  0  0  0  0  0  0  0  0
   -6.6060   14.6050   -1.2620 N   0  0  0  0  0  0  0  0  0  0  0  0
   -8.3830   14.4660    0.4330 C   0  0  0  0  0  0  0  0  0  0  0  0
   -8.3090   14.7390    1.9350 C   0  0  0  0  0  0  0  0  0  0  0  0
   -4.5760   14.7180   -2.6250 N   0  0  0  0  0  0  0  0  0  0  0  0
   -3.2680   14.7750   -2.2110 C   0  0  0  0  0  0  0  0  0  0  0  0
   -2.0770   14.8070   -3.1030 C   0  0  0  0  0  0  0  0  0  0  0  0
   -0.8000   14.5170   -2.2840 C   0  0  0  0  0  0  0  0  0  0  0  0
    0.5210   14.4400   -3.0520 C   0  0  0  0  0  0  0  0  0  0  0  0
    1.2240   13.2100   -2.8070 O   0  0  0  0  0  0  0  0  0  0  0  0
    0.8490   12.1600   -3.5880 C   0  0  0  0  0  0  0  0  0  0  0  0
    0.6210   11.0350   -3.1660 O   0  0  0  0  0  0  0  0  0  0  0  0
    0.7660   12.6380   -5.0340 C   0  0  0  0  0  0  0  0  0  0  0  0
    0.7710   11.5430   -5.9370 O   0  0  0  0  0  0  0  0  0  0  0  0
   -0.3410   10.7580   -6.0520 C   0  0  0  0  0  0  0  0  0  0  0  0
   -0.4040    9.5730   -6.7840 C   0  0  0  0  0  0  0  0  0  0  0  0
   -1.4820   11.2000   -5.3750 C   0  0  0  0  0  0  0  0  0  0  0  0
   -1.5880    8.8380   -6.8410 C   0  0  0  0  0  0  0  0  0  0  0  0
   -2.6700   10.4660   -5.4310 C   0  0  0  0  0  0  0  0  0  0  0  0
   -2.7210    9.2840   -6.1650 C   0  0  0  0  0  0  0  0  0  0  0  0
  1  2  1  0
  2  3  2  0
  2  4  1  0
  4  5  1  0
  3  6  1  0
  3  7  1  0
  4  8  1  0
  5  9  1  0
  6  9  2  0
  6 10  1  0
  7 11  1  0
 10 11  1  0
  5 12  2  0
  8 13  2  0
 12 13  1  0
 13 14  1  0
 14 15  1  0
 15 16  1  0
 16 17  1  0
 17 18  1  0
 18 19  2  0
 18 20  1  0
 20 21  1  0
 21 22  1  0
 22 23  2  0
 22 24  1  0
 23 25  1  0
 24 26  2  0
 25 27  2  0
 26 27  1  0
M  END
