mac-x0354-diamond-x0962_3_A
     RDKit          3D

 16 17  0  0  0  0  0  0  0  0999 V2000
    0.8230   11.2330   -8.2000 C   0  0  0  0  0  0  0  0  0  0  0  0
    1.0290   11.6480   -6.7950 N   0  0  0  0  0  0  0  0  0  0  0  0
    1.9810   12.5320   -6.4380 N   0  0  0  0  0  0  0  0  0  0  0  0
    0.7430   10.9310   -9.3020 N   0  0  0  0  0  0  0  0  0  0  0  0
    0.3080   11.1870   -5.7210 C   0  0  0  0  0  0  0  0  0  0  0  0
    1.8830   12.6310   -5.1320 C   0  0  0  0  0  0  0  0  0  0  0  0
    0.8680   11.8130   -4.5960 C   0  0  0  0  0  0  0  0  0  0  0  0
   -0.7740   10.2230   -5.8940 C   0  0  0  0  0  0  0  0  0  0  0  0
    0.5830   11.7170   -3.1820 C   0  0  0  0  0  0  0  0  0  0  0  0
   -0.5360    8.9180   -6.3590 C   0  0  0  0  0  0  0  0  0  0  0  0
   -2.0740   10.6140   -5.5940 C   0  0  0  0  0  0  0  0  0  0  0  0
    0.7150   12.6600   -2.4180 O   0  0  0  0  0  0  0  0  0  0  0  0
    0.1920   10.4990   -2.7120 O   0  0  0  0  0  0  0  0  0  0  0  0
   -1.5960    8.0270   -6.5090 C   0  0  0  0  0  0  0  0  0  0  0  0
   -3.1310    9.7230   -5.7450 C   0  0  0  0  0  0  0  0  0  0  0  0
   -2.8920    8.4290   -6.2000 C   0  0  0  0  0  0  0  0  0  0  0  0
  1  2  1  0
  2  3  1  0
  1  4  3  0
  2  5  1  0
  3  6  2  0
  5  7  2  0
  6  7  1  0
  5  8  1  0
  7  9  1  0
  8 10  2  0
  8 11  1  0
  9 12  2  0
  9 13  1  0
 10 14  1  0
 11 15  2  0
 14 16  2  0
 15 16  1  0
M  END
