mac-x0555-mac-x0345
     RDKit          3D

 14 15  0  0  0  0  0  0  0  0999 V2000
   -7.6150   14.3720    3.2500 N   0  0  0  0  0  0  0  0  0  0  0  0
   -7.1690   14.5140    1.9480 C   0  0  0  0  0  0  0  0  0  0  0  0
   -8.0190   14.5190    0.8730 C   0  0  0  0  0  0  0  0  0  0  0  0
   -5.8150   14.6600    1.6780 C   0  0  0  0  0  0  0  0  0  0  0  0
   -5.3500   14.8060    0.3650 C   0  0  0  0  0  0  0  0  0  0  0  0
   -7.6110   14.6570   -0.3870 N   0  0  0  0  0  0  0  0  0  0  0  0
   -6.3020   14.7970   -0.6260 C   0  0  0  0  0  0  0  0  0  0  0  0
   -4.0160   14.9520    0.0140 C   0  0  0  0  0  0  0  0  0  0  0  0
   -2.7370   14.9400    1.3880 Br  0  0  0  0  0  0  0  0  0  0  0  0
   -5.9330   14.9340   -1.9170 C   0  0  0  0  0  0  0  0  0  0  0  0
   -3.6150   15.0980   -1.3160 C   0  0  0  0  0  0  0  0  0  0  0  0
   -7.1160   14.8900   -2.8130 C   0  0  0  0  0  0  0  0  0  0  0  0
   -4.5900   15.0880   -2.3160 C   0  0  0  0  0  0  0  0  0  0  0  0
   -4.2270   15.2240   -3.6580 N   0  0  0  0  0  0  0  0  0  0  0  0
  1  2  1  0
  2  3  2  0
  2  4  1  0
  4  5  2  0
  3  6  1  0
  5  7  1  0
  6  7  2  0
  5  8  1  0
  8  9  1  0
  7 10  1  0
  8 11  2  0
 10 12  1  0
 10 13  2  0
 11 13  1  0
 13 14  1  0
M  END
