mac-x0572-diamond-x0628_0_A
     RDKit          3D

 27 29  0  0  0  0  0  0  0  0999 V2000
   -7.9830   14.7460    3.2390 C   0  0  0  0  0  0  0  0  0  0  0  0
   -7.2450   14.7800    1.9240 C   0  0  0  0  0  0  0  0  0  0  0  0
   -5.9040   15.0820    2.0470 N   0  0  0  0  0  0  0  0  0  0  0  0
   -7.8540   14.5420    0.7490 C   0  0  0  0  0  0  0  0  0  0  0  0
   -9.1940   14.2470    0.6040 O   0  0  0  0  0  0  0  0  0  0  0  0
   -6.9980   14.5960   -0.4650 C   0  0  0  0  0  0  0  0  0  0  0  0
   -5.0860   14.8210    1.0720 C   0  0  0  0  0  0  0  0  0  0  0  0
   -7.4920   14.9200   -1.5430 O   0  0  0  0  0  0  0  0  0  0  0  0
   -5.5640   14.2100   -0.2140 C   0  0  2  0  0  0  0  0  0  0  0  0
   -3.6380   15.0950    1.2290 C   0  0  0  0  0  0  0  0  0  0  0  0
   -2.8330   15.0140    0.1550 C   0  0  0  0  0  0  0  0  0  0  0  0
   -4.5950   14.3280   -1.3570 C   0  0  0  0  0  0  0  0  0  0  0  0
   -3.3080   14.6810   -1.1890 C   0  0  0  0  0  0  0  0  0  0  0  0
   -2.3250   14.7200   -2.3500 C   0  0  0  0  0  0  0  0  0  0  0  0
   -1.7780   13.3440   -2.8480 C   0  0  0  0  0  0  0  0  0  0  0  0
   -2.4570   12.7130   -4.0830 C   0  0  0  0  0  0  0  0  0  0  0  0
   -1.6240   11.8620   -5.0160 C   0  0  0  0  0  0  0  0  0  0  0  0
   -2.0080   10.7080   -5.5460 N   0  0  0  0  0  0  0  0  0  0  0  0
   -0.3490   12.1300   -5.4750 N   0  0  0  0  0  0  0  0  0  0  0  0
    0.5140   13.2600   -5.1920 C   0  0  0  0  0  0  0  0  0  0  0  0
   -0.9450   10.3160   -6.3170 C   0  0  0  0  0  0  0  0  0  0  0  0
    0.0860   11.1580   -6.3040 N   0  0  0  0  0  0  0  0  0  0  0  0
   -0.9370    9.0620   -7.1000 C   0  0  0  0  0  0  0  0  0  0  0  0
    1.6540   12.9490   -4.2190 C   0  0  0  0  0  0  0  0  0  0  0  0
    1.1350   12.2400   -2.9950 C   0  0  0  0  0  0  0  0  0  0  0  0
    0.6560   11.1180   -2.9670 O   0  0  0  0  0  0  0  0  0  0  0  0
    1.2550   12.9850   -1.8760 O   0  0  0  0  0  0  0  0  0  0  0  0
  1  2  1  0
  2  3  1  0
  2  4  2  0
  4  5  1  0
  4  6  1  0
  3  7  2  0
  6  8  2  0
  6  9  1  0
  7  9  1  0
  7 10  1  0
 10 11  2  0
  9 12  1  6
 11 13  1  0
 12 13  2  0
 13 14  1  0
 14 15  1  0
 15 16  1  0
 16 17  1  0
 17 18  2  0
 17 19  1  0
 19 20  1  0
 18 21  1  0
 19 22  1  0
 21 22  2  0
 21 23  1  0
 20 24  1  0
 24 25  1  0
 25 26  2  0
 25 27  1  0
M  END
