mac-x0441-diamond-x1015_0_A
     RDKit          3D

 23 25  0  0  0  0  0  0  0  0999 V2000
    0.8170   11.1720   -3.7260 N   0  0  0  0  0  0  0  0  0  0  0  0
    1.7430   12.0780   -4.1120 C   0  0  0  0  0  0  0  0  0  0  0  0
    2.7280   12.4650   -3.4910 O   0  0  0  0  0  0  0  0  0  0  0  0
   -0.2140   11.8730   -3.6120 C   0  0  0  0  0  0  0  0  0  0  0  0
    1.2590   12.5460   -5.5250 C   0  0  0  0  0  0  0  0  0  0  0  0
   -1.6850   11.6690   -3.3870 C   0  0  2  0  0  0  0  0  0  0  0  0
    0.0510   13.1970   -3.7280 N   0  0  0  0  0  0  0  0  0  0  0  0
    0.2860   11.4650   -5.8950 N   0  0  0  0  0  0  0  0  0  0  0  0
   -2.3910   10.7180   -4.4060 C   0  0  0  0  0  0  0  0  0  0  0  0
   -2.1390   13.1740   -3.4780 C   0  0  2  0  0  0  0  0  0  0  0  0
   -0.8800   13.9110   -3.1340 C   0  0  0  0  0  0  0  0  0  0  0  0
   -3.2340   13.5900   -2.5280 C   0  0  0  0  0  0  0  0  0  0  0  0
   -0.7180   14.9220   -2.4620 O   0  0  0  0  0  0  0  0  0  0  0  0
    1.1640   10.3600   -5.8710 N   0  0  0  0  0  0  0  0  0  0  0  0
   -0.3680   11.2880   -7.2410 C   0  0  1  0  0  0  0  0  0  0  0  0
   -2.6020   11.1690   -5.8750 C   0  0  0  0  0  0  0  0  0  0  0  0
    0.6180   10.3730   -7.9640 C   0  0  2  0  0  0  0  0  0  0  0  0
   -1.7240   10.5760   -6.9840 C   0  0  0  0  0  0  0  0  0  0  0  0
    1.8190   10.6020   -7.1530 C   0  0  0  0  0  0  0  0  0  0  0  0
    0.8470   10.3550   -9.4450 C   0  0  0  0  0  0  0  0  0  0  0  0
    1.4650    9.1950   -9.7650 F   0  0  0  0  0  0  0  0  0  0  0  0
   -0.3170   10.3830  -10.1200 F   0  0  0  0  0  0  0  0  0  0  0  0
    1.6210   11.3210   -9.9280 F   0  0  0  0  0  0  0  0  0  0  0  0
  1  2  1  0
  2  3  2  0
  1  4  2  0
  2  5  1  0
  4  6  1  0
  4  7  1  0
  5  8  1  0
  6  9  1  6
  6 10  1  0
  7 11  1  0
 10 11  1  0
 10 12  1  1
 11 13  2  0
  8 14  1  0
  8 15  1  0
  9 16  1  0
 15 17  1  0
 15 18  1  1
 16 18  1  0
 14 19  1  0
 17 19  1  0
 17 20  1  6
 20 21  1  0
 20 22  1  0
 20 23  1  0
M  END
