mac-x0455-diamond-x0631_0_A
     RDKit          3D

 29 31  0  0  0  0  0  0  0  0999 V2000
   -2.3770   14.6420   -2.7280 C   0  0  0  0  0  0  0  0  0  0  0  0
   -1.0970   14.3280   -3.5100 C   0  0  1  0  0  0  0  0  0  0  0  0
   -0.9530   15.3460   -4.5310 O   0  0  0  0  0  0  0  0  0  0  0  0
    0.0710   14.4950   -2.4990 C   0  0  0  0  0  0  0  0  0  0  0  0
   -0.9960   12.9470   -4.1280 C   0  0  0  0  0  0  0  0  0  0  0  0
    0.8220   15.4410   -2.4050 O   0  0  0  0  0  0  0  0  0  0  0  0
    0.1860   13.4090   -1.6780 O   0  0  0  0  0  0  0  0  0  0  0  0
   -1.9270   11.9490   -3.8260 C   0  0  0  0  0  0  0  0  0  0  0  0
    0.0560   12.6280   -5.0070 C   0  0  0  0  0  0  0  0  0  0  0  0
   -1.8010   10.6720   -4.3530 C   0  0  0  0  0  0  0  0  0  0  0  0
    0.1800   11.3440   -5.5370 C   0  0  0  0  0  0  0  0  0  0  0  0
   -0.7450   10.3410   -5.2000 C   0  0  0  0  0  0  0  0  0  0  0  0
   -0.6710    8.8970   -5.6630 C   0  0  0  0  0  0  0  0  0  0  0  0
   -0.3670    8.4910   -7.1200 C   0  0  1  0  0  0  0  0  0  0  0  0
   -1.6300    7.8090   -7.6590 C   0  0  0  0  0  0  0  0  0  0  0  0
    0.0580    9.5880   -7.9960 N   0  0  0  0  0  0  0  0  0  0  0  0
   -2.7890    8.7930   -7.7590 C   0  0  0  0  0  0  0  0  0  0  0  0
    0.6750   10.7100   -7.4430 N   0  0  0  0  0  0  0  0  0  0  0  0
    0.7880    9.2580   -9.1810 N   0  0  0  0  0  0  0  0  0  0  0  0
    1.1260   11.3930   -8.6290 N   0  0  0  0  0  0  0  0  0  0  0  0
    0.6960   10.5730   -9.7490 C   0  0  1  0  0  0  0  0  0  0  0  0
    1.6450   10.8000  -10.8100 N   0  0  0  0  0  0  0  0  0  0  0  0
    2.2900    9.6470  -11.4240 C   0  0  1  0  0  0  0  0  0  0  0  0
    1.4590    8.5120  -11.3590 O   0  0  0  0  0  0  0  0  0  0  0  0
    2.6080    9.9710  -12.9140 C   0  0  2  0  0  0  0  0  0  0  0  0
    3.9560    9.5640  -13.2050 O   0  0  0  0  0  0  0  0  0  0  0  0
    2.5630   11.4480  -13.2800 C   0  0  0  0  0  0  0  0  0  0  0  0
    3.5260   11.5580  -14.4450 C   0  0  0  0  0  0  0  0  0  0  0  0
    4.3540   10.2860  -14.3790 C   0  0  0  0  0  0  0  0  0  0  0  0
  2  1  1  1
  2  3  1  0
  2  4  1  0
  2  5  1  0
  4  6  2  0
  4  7  1  0
  5  8  2  0
  5  9  1  0
  8 10  1  0
  9 11  2  0
 10 12  2  0
 11 12  1  0
 12 13  1  0
 14 13  1  1
 14 15  1  0
 14 16  1  0
 15 17  1  0
 16 18  1  0
 16 19  1  0
 18 20  1  0
 19 21  1  0
 20 21  1  0
 21 22  1  6
 22 23  1  0
 23 24  1  6
 23 25  1  0
 25 26  1  0
 25 27  1  1
 27 28  1  0
 26 29  1  0
 28 29  1  0
M  END
