mac-x0180-mac-x0282
     RDKit          3D

 17 18  0  0  0  0  0  0  0  0999 V2000
   -7.4140   14.4730    1.7860 C   0  0  0  0  0  0  0  0  0  0  0  0
   -6.5470   14.6820    0.5740 C   0  0  0  0  0  0  0  0  0  0  0  0
   -7.0690   14.7800   -0.5370 O   0  0  0  0  0  0  0  0  0  0  0  0
   -5.1840   14.7520    0.8510 N   0  0  0  0  0  0  0  0  0  0  0  0
   -4.1870   14.8080   -0.1700 C   0  0  0  0  0  0  0  0  0  0  0  0
   -2.7750   14.7370    0.1050 C   0  0  0  0  0  0  0  0  0  0  0  0
   -4.6350   14.9390   -1.5010 C   0  0  0  0  0  0  0  0  0  0  0  0
   -1.9270   14.8030   -1.0280 C   0  0  0  0  0  0  0  0  0  0  0  0
   -3.7520   14.9980   -2.5690 C   0  0  0  0  0  0  0  0  0  0  0  0
   -2.2050   14.6120    1.3680 N   0  0  0  0  0  0  0  0  0  0  0  0
   -2.4020   14.9270   -2.3140 C   0  0  0  0  0  0  0  0  0  0  0  0
   -0.5680   14.7490   -0.8650 C   0  0  0  0  0  0  0  0  0  0  0  0
   -0.8450   14.5610    1.4210 C   0  0  0  0  0  0  0  0  0  0  0  0
   -1.4330   14.9930   -3.4320 C   0  0  0  0  0  0  0  0  0  0  0  0
   -0.0280   14.6330    0.3420 C   0  0  0  0  0  0  0  0  0  0  0  0
   -1.6930   15.0560   -4.6100 O   0  0  0  0  0  0  0  0  0  0  0  0
   -0.1590   14.9820   -2.9970 O   0  0  0  0  0  0  0  0  0  0  0  0
  1  2  1  0
  2  3  2  0
  2  4  1  0
  4  5  1  0
  5  6  2  0
  5  7  1  0
  6  8  1  0
  7  9  2  0
  6 10  1  0
  8 11  2  0
  9 11  1  0
  8 12  1  0
 10 13  2  0
 11 14  1  0
 12 15  2  0
 13 15  1  0
 14 16  2  0
 14 17  1  0
M  END
