mac-x0326-mac-x1493
     RDKit          3D

 23 25  0  0  0  0  0  0  0  0999 V2000
   -6.0450   15.7800   -1.4020 Cl  0  0  0  0  0  0  0  0  0  0  0  0
   -4.5160   14.8040   -1.3770 C   0  0  1  0  0  0  0  0  0  0  0  0
   -3.4600   15.2930   -2.3960 C   0  0  2  0  0  0  0  0  0  0  0  0
   -4.0850   14.4500    0.1050 C   0  0  1  0  0  0  0  0  0  0  0  0
   -3.3340   14.4810   -3.6200 C   0  0  0  0  0  0  0  0  0  0  0  0
   -2.0980   14.9720   -2.0540 C   0  0  0  0  0  0  0  0  0  0  0  0
   -2.5100   14.4050    0.3680 C   0  0  0  0  0  0  0  0  0  0  0  0
   -4.6740   15.3660    1.2420 C   0  0  0  0  0  0  0  0  0  0  0  0
   -4.7840   13.0860    0.1760 C   0  0  0  0  0  0  0  0  0  0  0  0
   -2.5890   13.3780   -3.3750 O   0  0  0  0  0  0  0  0  0  0  0  0
   -3.7660   14.7560   -4.7130 O   0  0  0  0  0  0  0  0  0  0  0  0
   -1.1840   15.0600   -3.0880 N   0  0  0  0  0  0  0  0  0  0  0  0
   -1.6500   14.5780   -0.8510 C   0  0  0  0  0  0  0  0  0  0  0  0
   -5.8780   12.8060    0.9040 C   0  0  0  0  0  0  0  0  0  0  0  0
   -5.9530   14.9220    1.9360 C   0  0  0  0  0  0  0  0  0  0  0  0
   -0.0080   14.7270   -2.6500 C   0  0  0  0  0  0  0  0  0  0  0  0
    0.0380   14.3080   -0.9670 S   0  0  0  0  0  0  0  0  0  0  0  0
   -6.5040   13.7490    1.7530 C   0  0  0  0  0  0  0  0  0  0  0  0
    1.1990   14.7030   -3.5490 C   0  0  0  0  0  0  0  0  0  0  0  0
    1.2810   13.3600   -4.2690 C   0  0  0  0  0  0  0  0  0  0  0  0
    1.2120   12.2800   -3.2260 C   0  0  0  0  0  0  0  0  0  0  0  0
    0.4600   11.2010   -3.5480 O   0  0  0  0  0  0  0  0  0  0  0  0
    1.7890   12.3740   -2.1670 O   0  0  0  0  0  0  0  0  0  0  0  0
  2  1  1  1
  2  3  1  0
  2  4  1  0
  3  5  1  6
  3  6  1  0
  4  7  1  6
  4  8  1  0
  4  9  1  0
  5 10  1  0
  5 11  2  0
  6 12  1  0
  6 13  2  0
  7 13  1  0
  9 14  2  0
  8 15  1  0
 12 16  2  0
 13 17  1  0
 16 17  1  0
 14 18  1  0
 15 18  2  0
 16 19  1  0
 19 20  1  0
 20 21  1  0
 21 22  1  0
 21 23  2  0
M  END
