mac-x0132-mac-x0190
     RDKit          3D

 13 14  0  0  0  0  0  0  0  0999 V2000
   -4.3170   15.1220    2.0950 N   0  0  0  0  0  0  0  0  0  0  0  0
   -5.2870   14.9500    1.1090 C   0  0  0  0  0  0  0  0  0  0  0  0
   -6.5440   14.7430    1.5270 N   0  0  0  0  0  0  0  0  0  0  0  0
   -4.9320   14.9990   -0.2300 C   0  0  0  0  0  0  0  0  0  0  0  0
   -5.9840   14.8300   -1.1340 C   0  0  0  0  0  0  0  0  0  0  0  0
   -7.4810   14.5830    0.5810 C   0  0  0  0  0  0  0  0  0  0  0  0
   -3.6160   15.2040   -0.6980 C   0  0  0  0  0  0  0  0  0  0  0  0
   -8.8960   14.3390    1.0700 C   0  0  0  0  0  0  0  0  0  0  0  0
   -7.2490   14.6250   -0.7410 N   0  0  0  0  0  0  0  0  0  0  0  0
   -5.6930   14.8740   -2.4870 C   0  0  0  0  0  0  0  0  0  0  0  0
   -3.3520   15.2360   -2.0580 C   0  0  0  0  0  0  0  0  0  0  0  0
   -9.1570   14.9720    2.3310 O   0  0  0  0  0  0  0  0  0  0  0  0
   -4.3910   15.0740   -2.9570 C   0  0  0  0  0  0  0  0  0  0  0  0
  1  2  1  0
  2  3  2  0
  2  4  1  0
  4  5  2  0
  3  6  1  0
  4  7  1  0
  6  8  1  0
  5  9  1  0
  6  9  2  0
  5 10  1  0
  7 11  2  0
  8 12  1  0
 10 13  2  0
 11 13  1  0
M  END
