mac-x0439-mac-x0302
     RDKit          3D

 25 27  0  0  0  0  0  0  0  0999 V2000
   -3.1410   15.6330   -5.8590 Cl  0  0  0  0  0  0  0  0  0  0  0  0
   -1.7340   16.5930   -5.5840 C   0  0  0  0  0  0  0  0  0  0  0  0
   -0.7220   16.1180   -4.6010 C   0  0  1  0  0  0  0  0  0  0  0  0
   -1.5580   17.7690   -6.2150 C   0  0  0  0  0  0  0  0  0  0  0  0
   -0.2080   14.7860   -4.2250 C   0  0  0  0  0  0  0  0  0  0  0  0
    0.6050   16.8150   -4.6980 C   0  0  0  0  0  0  0  0  0  0  0  0
   -0.3800   18.5930   -5.9650 C   0  0  0  0  0  0  0  0  0  0  0  0
    1.1260   14.8860   -3.9580 C   0  0  0  0  0  0  0  0  0  0  0  0
    1.6100   16.1270   -4.2620 N   0  0  0  0  0  0  0  0  0  0  0  0
    0.6810   18.1810   -5.2380 C   0  0  0  0  0  0  0  0  0  0  0  0
    2.0390   13.7840   -3.4090 C   0  0  1  0  0  0  0  0  0  0  0  0
    2.9900   14.2670   -2.4560 O   0  0  0  0  0  0  0  0  0  0  0  0
    1.0680   12.9510   -2.7450 N   0  0  0  0  0  0  0  0  0  0  0  0
    0.1200   13.8030   -2.6410 C   0  0  0  0  0  0  0  0  0  0  0  0
   -1.2370   13.5670   -2.0760 C   0  0  0  0  0  0  0  0  0  0  0  0
   -1.8380   14.8680   -2.0790 N   0  0  0  0  0  0  0  0  0  0  0  0
   -3.1610   15.0900   -2.3450 C   0  0  0  0  0  0  0  0  0  0  0  0
   -3.6250   15.3040   -3.4550 O   0  0  0  0  0  0  0  0  0  0  0  0
   -3.9980   15.0630   -1.1400 C   0  0  0  0  0  0  0  0  0  0  0  0
   -5.3790   14.9810   -1.2710 C   0  0  0  0  0  0  0  0  0  0  0  0
   -3.4020   15.1160    0.1250 C   0  0  0  0  0  0  0  0  0  0  0  0
   -6.1590   14.9420   -0.1300 C   0  0  0  0  0  0  0  0  0  0  0  0
   -4.1910   15.0800    1.2600 C   0  0  0  0  0  0  0  0  0  0  0  0
   -7.5100   14.8580   -0.2900 O   0  0  0  0  0  0  0  0  0  0  0  0
   -5.5760   14.9880    1.1400 C   0  0  0  0  0  0  0  0  0  0  0  0
  1  2  1  0
  2  3  1  0
  2  4  2  0
  3  5  1  6
  3  6  1  0
  4  7  1  0
  5  8  2  0
  6  9  2  0
  8  9  1  0
  6 10  1  0
  7 10  2  0
  8 11  1  0
 11 12  1  1
 11 13  1  0
 13 14  2  3
 14 15  1  0
 15 16  1  0
 16 17  1  0
 17 18  2  0
 17 19  1  0
 19 20  2  0
 19 21  1  0
 20 22  1  0
 21 23  2  0
 22 24  1  0
 22 25  2  0
 23 25  1  0
M  END
