mac-x0302-mac-x0472
     RDKit          3D

 26 28  0  0  0  0  0  0  0  0999 V2000
    0.8940   13.5380   -3.8080 O   0  0  0  0  0  0  0  0  0  0  0  0
    0.1370   13.8080   -2.6870 C   0  0  0  0  0  0  0  0  0  0  0  0
    0.4900   13.1200   -1.6630 O   0  0  0  0  0  0  0  0  0  0  0  0
   -0.9590   14.7590   -2.5450 C   0  0  0  0  0  0  0  0  0  0  0  0
   -2.2750   14.2380   -2.0470 N   0  0  0  0  0  0  0  0  0  0  0  0
   -3.6430   14.4270   -2.8260 S   0  0  0  0  0  0  0  0  0  0  0  0
   -2.2360   14.2700   -0.6210 C   0  0  0  0  0  0  0  0  0  0  0  0
   -2.9480   15.2740   -3.8470 O   0  0  0  0  0  0  0  0  0  0  0  0
   -4.9110   14.7860   -3.4020 O   0  0  0  0  0  0  0  0  0  0  0  0
   -4.3930   14.8280   -1.2560 C   0  0  0  0  0  0  0  0  0  0  0  0
   -1.3630   14.7600    0.2470 N   0  0  0  0  0  0  0  0  0  0  0  0
   -3.4530   13.6390    0.4260 S   0  0  0  0  0  0  0  0  0  0  0  0
   -4.0030   12.7100   -2.7620 C   0  0  0  0  0  0  0  0  0  0  0  0
   -5.7090   14.5210   -1.1230 C   0  0  0  0  0  0  0  0  0  0  0  0
   -3.6540   15.3560   -0.2860 C   0  0  0  0  0  0  0  0  0  0  0  0
   -2.7360   14.1120    1.8730 C   0  0  0  0  0  0  0  0  0  0  0  0
   -1.6100   14.6850    1.4730 N   0  0  0  0  0  0  0  0  0  0  0  0
   -3.1570   11.6700   -3.1500 C   0  0  0  0  0  0  0  0  0  0  0  0
   -5.2200   12.2990   -2.2690 C   0  0  0  0  0  0  0  0  0  0  0  0
   -6.3270   14.7270    0.0740 C   0  0  0  0  0  0  0  0  0  0  0  0
   -4.2810   15.5720    0.9440 C   0  0  0  0  0  0  0  0  0  0  0  0
   -3.5300   10.3540   -3.0390 C   0  0  0  0  0  0  0  0  0  0  0  0
   -5.6310   10.9970   -2.1420 C   0  0  0  0  0  0  0  0  0  0  0  0
   -7.6550   14.4200    0.2440 O   0  0  0  0  0  0  0  0  0  0  0  0
   -5.6060   15.2400    1.1130 C   0  0  0  0  0  0  0  0  0  0  0  0
   -4.7710   10.0080   -2.5340 C   0  0  0  0  0  0  0  0  0  0  0  0
  1  2  1  0
  2  3  2  0
  2  4  1  0
  4  5  1  0
  5  6  1  0
  5  7  1  0
  6  8  2  0
  6  9  1  0
  6 10  1  0
  7 11  2  0
  7 12  1  0
  6 13  1  0
 10 14  2  0
 10 15  1  0
 12 16  1  0
 11 17  1  0
 16 17  2  0
 13 18  2  0
 13 19  1  0
 14 20  1  0
 15 21  2  0
 18 22  1  0
 19 23  2  0
 20 24  1  0
 20 25  2  0
 21 25  1  0
 22 26  2  0
 23 26  1  0
M  END
