mac-x0306-mac-x0337
     RDKit          3D

 21 23  0  0  0  0  0  0  0  0999 V2000
   -5.5930    9.1430   -2.4910 C   0  0  0  0  0  0  0  0  0  0  0  0
   -5.3010   10.5860   -2.1630 C   0  0  0  0  0  0  0  0  0  0  0  0
   -6.2970   11.4620   -1.8250 C   0  0  0  0  0  0  0  0  0  0  0  0
   -4.0040   11.0600   -2.1930 C   0  0  0  0  0  0  0  0  0  0  0  0
   -3.7060   12.3720   -1.8940 C   0  0  0  0  0  0  0  0  0  0  0  0
   -5.9990   12.7750   -1.5290 C   0  0  0  0  0  0  0  0  0  0  0  0
   -4.7120   13.2020   -1.5690 C   0  0  0  0  0  0  0  0  0  0  0  0
   -4.2780   14.9340   -1.1930 S   0  0  0  0  0  0  0  0  0  0  0  0
   -3.3830   15.7380   -2.1650 O   0  0  0  0  0  0  0  0  0  0  0  0
   -4.8340   15.6180    0.2080 N   0  0  0  0  0  0  0  0  0  0  0  0
   -2.9630   14.2420   -0.4070 C   0  0  0  0  0  0  0  0  0  0  0  0
   -2.6710   14.7510   -1.5560 N   0  0  0  0  0  0  0  0  0  0  0  0
   -4.0410   14.0810    0.4010 C   0  0  0  0  0  0  0  0  0  0  0  0
   -3.7920   15.2830   -2.1150 C   0  0  0  0  0  0  0  0  0  0  0  0
   -5.2240   14.6050   -0.1130 C   0  0  0  0  0  0  0  0  0  0  0  0
   -6.5210   14.5380    0.6020 C   0  0  0  0  0  0  0  0  0  0  0  0
   -5.0160   15.1940   -1.3810 C   0  0  0  0  0  0  0  0  0  0  0  0
   -6.7040   14.3480    1.9300 N   0  0  0  0  0  0  0  0  0  0  0  0
   -7.7640   14.6520    0.0940 N   0  0  0  0  0  0  0  0  0  0  0  0
   -8.7070   14.5420    1.0550 C   0  0  0  0  0  0  0  0  0  0  0  0
   -8.0090   14.3460    2.2240 C   0  0  0  0  0  0  0  0  0  0  0  0
  1  2  1  0
  2  3  2  0
  2  4  1  0
  4  5  2  0
  3  6  1  0
  5  7  1  0
  6  7  2  0
  7  8  1  0
  8  9  2  0
  8 10  1  0
  8 11  1  0
 11 12  2  0
 11 13  1  0
 12 14  1  0
 13 15  2  0
 15 16  1  0
 14 17  2  0
 15 17  1  0
 16 18  1  0
 16 19  2  0
 19 20  1  0
 18 21  1  0
 20 21  2  0
M  END
