mac-x0357-diamond-x0681_0_A
     RDKit          3D

 24 26  0  0  0  0  0  0  0  0999 V2000
    2.3790   13.2680   -4.5020 C   0  0  0  0  0  0  0  0  0  0  0  0
    1.0890   12.5420   -4.7920 C   0  0  0  0  0  0  0  0  0  0  0  0
    0.9270   11.8590   -6.0030 C   0  0  0  0  0  0  0  0  0  0  0  0
    0.0150   12.5130   -3.8760 C   0  0  0  0  0  0  0  0  0  0  0  0
    1.9450   11.8710   -6.8900 O   0  0  0  0  0  0  0  0  0  0  0  0
    0.0410   13.2070   -2.5590 C   0  0  0  0  0  0  0  0  0  0  0  0
   -1.1580   11.8070   -4.2040 C   0  0  0  0  0  0  0  0  0  0  0  0
   -0.2370   11.1640   -6.3220 C   0  0  0  0  0  0  0  0  0  0  0  0
   -0.7890   14.1430   -2.3070 N   0  0  0  0  0  0  0  0  0  0  0  0
    0.9940   12.7450   -1.7260 O   0  0  0  0  0  0  0  0  0  0  0  0
   -1.2870   11.1360   -5.4190 C   0  0  0  0  0  0  0  0  0  0  0  0
   -1.6950   14.4510   -3.3910 C   0  0  0  0  0  0  0  0  0  0  0  0
   -2.9490   15.0830   -3.0190 N   0  0  0  0  0  0  0  0  0  0  0  0
   -3.6430   15.0160   -1.9230 C   0  0  0  0  0  0  0  0  0  0  0  0
   -4.7880   15.7590   -1.9890 N   0  0  0  0  0  0  0  0  0  0  0  0
   -3.4190   14.2660   -0.6070 C   0  0  2  0  0  0  0  0  0  0  0  0
   -4.5610   13.2930   -0.4690 C   0  0  0  0  0  0  0  0  0  0  0  0
   -3.3930   15.3170    0.5330 C   0  0  0  0  0  0  0  0  0  0  0  0
   -5.5060   13.3800    0.5170 N   0  0  0  0  0  0  0  0  0  0  0  0
   -4.1030   14.8790    1.8080 C   0  0  0  0  0  0  0  0  0  0  0  0
   -4.8260   12.2580   -1.2430 N   0  0  0  0  0  0  0  0  0  0  0  0
   -5.5160   14.3930    1.5230 C   0  0  0  0  0  0  0  0  0  0  0  0
   -6.3990   12.3680    0.3720 C   0  0  0  0  0  0  0  0  0  0  0  0
   -5.9590   11.6820   -0.7300 C   0  0  0  0  0  0  0  0  0  0  0  0
  1  2  1  0
  2  3  2  0
  2  4  1  0
  3  5  1  0
  4  6  1  0
  4  7  2  0
  3  8  1  0
  6  9  2  3
  6 10  1  0
  7 11  1  0
  8 11  2  0
  9 12  1  0
 12 13  1  0
 13 14  2  3
 14 15  1  0
 16 14  1  6
 16 17  1  0
 16 18  1  0
 17 19  1  0
 18 20  1  0
 17 21  2  0
 19 22  1  0
 20 22  1  0
 19 23  1  0
 21 24  1  0
 23 24  2  0
M  END
