mac-x0341-mac-x0397
     RDKit          3D

 12 13  0  0  0  0  0  0  0  0999 V2000
   -6.8390   14.7690    2.3570 N   0  0  0  0  0  0  0  0  0  0  0  0
   -6.0810   14.8160    1.2350 C   0  0  0  0  0  0  0  0  0  0  0  0
   -4.8010   14.8690    1.3600 N   0  0  0  0  0  0  0  0  0  0  0  0
   -6.7030   14.8090    0.0200 N   0  0  0  0  0  0  0  0  0  0  0  0
   -6.0170   15.0280   -1.1510 C   0  0  0  0  0  0  0  0  0  0  0  0
   -4.0060   14.8780    0.2210 C   0  0  0  0  0  0  0  0  0  0  0  0
   -6.5860   15.2440   -2.2090 O   0  0  0  0  0  0  0  0  0  0  0  0
   -4.5510   14.9630   -1.0520 C   0  0  0  0  0  0  0  0  0  0  0  0
   -2.6210   14.8030    0.3680 C   0  0  0  0  0  0  0  0  0  0  0  0
   -1.7970   14.8040   -0.7600 C   0  0  0  0  0  0  0  0  0  0  0  0
   -3.7420   14.9670   -2.1880 C   0  0  0  0  0  0  0  0  0  0  0  0
   -2.3600   14.8880   -2.0380 C   0  0  0  0  0  0  0  0  0  0  0  0
  1  2  1  0
  2  3  2  0
  2  4  1  0
  4  5  1  0
  3  6  1  0
  5  7  2  0
  5  8  1  0
  6  8  2  0
  6  9  1  0
  9 10  2  0
  8 11  1  0
 10 12  1  0
 11 12  2  0
M  END
