mac-x0411-diamond-x0837_0_A
     RDKit          3D

 23 24  0  0  0  0  0  0  0  0999 V2000
    0.7510    9.1590   -7.8050 Cl  0  0  0  0  0  0  0  0  0  0  0  0
   -0.6950    9.6370   -6.9270 C   0  0  0  0  0  0  0  0  0  0  0  0
   -0.7310   10.7680   -6.0470 C   0  0  0  0  0  0  0  0  0  0  0  0
   -1.8200    8.8880   -7.1000 C   0  0  0  0  0  0  0  0  0  0  0  0
    0.2750   11.5230   -5.7960 O   0  0  0  0  0  0  0  0  0  0  0  0
   -1.9220   11.0270   -5.4440 C   0  0  0  0  0  0  0  0  0  0  0  0
   -3.0100    9.1700   -6.4710 C   0  0  0  0  0  0  0  0  0  0  0  0
   -2.1420   12.1820   -4.4990 C   0  0  0  0  0  0  0  0  0  0  0  0
    1.1420   12.2730   -5.2670 C   0  0  0  0  0  0  0  0  0  0  0  0
   -3.0590   10.2490   -5.6410 C   0  0  0  0  0  0  0  0  0  0  0  0
    1.3640   12.2680   -3.8270 C   0  0  0  0  0  0  0  0  0  0  0  0
   -2.3480   11.5750   -3.1370 C   0  0  0  0  0  0  0  0  0  0  0  0
    2.0400   13.1550   -3.0810 O   0  0  0  0  0  0  0  0  0  0  0  0
    0.8330   11.2800   -3.2020 O   0  0  0  0  0  0  0  0  0  0  0  0
   -2.3820   12.5400   -2.0210 C   0  0  0  0  0  0  0  0  0  0  0  0
   -3.0420   14.4950   -2.6270 I   0  0  0  0  0  0  0  0  0  0  0  0
   -4.2650   15.3290   -1.1080 C   0  0  2  0  0  0  0  0  0  0  0  0
   -3.5990   15.2510    0.1950 C   0  0  0  0  0  0  0  0  0  0  0  0
   -5.6310   14.6860   -1.1190 C   0  0  0  0  0  0  0  0  0  0  0  0
   -4.2250   15.0430    1.3240 C   0  0  0  0  0  0  0  0  0  0  0  0
   -6.3520   14.7820    0.1720 C   0  0  0  0  0  0  0  0  0  0  0  0
   -7.5890   14.7960    0.2190 O   0  0  0  0  0  0  0  0  0  0  0  0
   -5.6330   14.8590    1.4210 N   0  0  0  0  0  0  0  0  0  0  0  0
  1  2  1  0
  2  3  2  0
  2  4  1  0
  3  5  1  0
  3  6  1  0
  4  7  2  0
  6  8  1  0
  5  9  1  0
  6 10  2  0
  7 10  1  0
  9 11  1  0
  8 12  1  0
 11 13  1  0
 11 14  2  0
 12 15  1  0
 15 16  1  0
 17 16  1  6
 17 18  1  0
 17 19  1  0
 18 20  2  0
 19 21  1  0
 21 22  2  0
 20 23  1  0
 21 23  1  0
M  END
