mac-x0361-diamond-x0591_0_A
     RDKit          3D

 14 14  0  0  0  0  0  0  0  0999 V2000
   -6.1790   14.7160    1.3410 N   0  0  0  0  0  0  0  0  0  0  0  0
   -6.5100   14.8320    0.0120 C   0  0  0  0  0  0  0  0  0  0  0  0
   -7.6800   14.9070   -0.3410 O   0  0  0  0  0  0  0  0  0  0  0  0
   -4.9630   15.2450    1.7520 N   0  0  0  0  0  0  0  0  0  0  0  0
   -5.4040   14.8480   -1.0030 C   0  0  0  0  0  0  0  0  0  0  0  0
   -4.0400   14.7720   -0.6350 C   0  0  0  0  0  0  0  0  0  0  0  0
   -5.7220   14.9310   -2.3510 C   0  0  0  0  0  0  0  0  0  0  0  0
   -3.0310   14.7710   -1.6290 C   0  0  0  0  0  0  0  0  0  0  0  0
   -4.7250   14.9270   -3.3220 C   0  0  0  0  0  0  0  0  0  0  0  0
   -3.3680   14.8450   -3.0070 C   0  0  0  0  0  0  0  0  0  0  0  0
   -2.3560   14.8310   -4.1670 C   0  0  0  0  0  0  0  0  0  0  0  0
   -1.1570   15.5700   -3.9710 N   0  0  0  0  0  0  0  0  0  0  0  0
   -1.9450   13.5350   -4.4920 O   0  0  0  0  0  0  0  0  0  0  0  0
   -2.9660   15.3090   -5.3440 O   0  0  0  0  0  0  0  0  0  0  0  0
  1  2  1  0
  2  3  2  0
  1  4  1  0
  2  5  1  0
  5  6  2  0
  5  7  1  0
  6  8  1  0
  7  9  2  0
  8 10  2  0
  9 10  1  0
 10 11  1  0
 11 12  1  0
 11 13  1  0
 11 14  1  0
M  END
