mac-x0433-mac-x0333
     RDKit          3D

 14 15  0  0  0  0  0  0  0  0999 V2000
   -3.0680   15.9690    1.1910 C   0  0  0  0  0  0  0  0  0  0  0  0
   -4.5080   15.5440    1.1940 C   0  0  0  0  0  0  0  0  0  0  0  0
   -4.4960   14.1100    0.7700 C   0  0  1  0  0  0  0  0  0  0  0  0
   -5.3490   13.7560   -0.4430 C   0  0  2  0  0  0  0  0  0  0  0  0
   -3.0420   13.9520    0.4180 C   0  0  0  0  0  0  0  0  0  0  0  0
   -4.9520   14.5360   -1.6150 N   0  0  0  0  0  0  0  0  0  0  0  0
   -6.8830   13.9660   -0.4390 C   0  0  1  0  0  0  0  0  0  0  0  0
   -2.6330   14.1020   -0.8490 C   0  0  0  0  0  0  0  0  0  0  0  0
   -7.5420   14.4870    0.8330 C   0  0  0  0  0  0  0  0  0  0  0  0
   -6.0540   14.2940   -2.4510 C   0  0  1  0  0  0  0  0  0  0  0  0
   -7.1400   14.7690   -1.6400 N   0  0  0  0  0  0  0  0  0  0  0  0
   -3.5640   14.4120   -1.9980 C   0  0  2  0  0  0  0  0  0  0  0  0
   -6.0760   14.9480   -3.6930 N   0  0  0  0  0  0  0  0  0  0  0  0
   -3.0380   15.4690   -2.7860 O   0  0  0  0  0  0  0  0  0  0  0  0
  1  2  1  0
  3  2  1  6
  3  4  1  0
  3  5  1  0
  4  6  1  6
  4  7  1  0
  5  8  2  0
  7  9  1  1
  6 10  1  0
  7 11  1  0
 10 11  1  0
  6 12  1  0
  8 12  1  0
 10 13  1  6
 12 14  1  1
M  END
