mac-x0321-mac-x0398
     RDKit          3D

 11 11  0  0  0  0  0  0  0  0999 V2000
   -4.3380   15.4970    1.6460 Cl  0  0  0  0  0  0  0  0  0  0  0  0
   -4.3310   15.3350   -0.0480 C   0  0  0  0  0  0  0  0  0  0  0  0
   -3.1330   15.0390   -0.6770 C   0  0  0  0  0  0  0  0  0  0  0  0
   -5.5050   15.5020   -0.7730 C   0  0  0  0  0  0  0  0  0  0  0  0
   -3.1040   14.9130   -2.0670 C   0  0  0  0  0  0  0  0  0  0  0  0
   -5.4810   15.3770   -2.1530 C   0  0  0  0  0  0  0  0  0  0  0  0
   -1.8550   14.6020   -2.7920 C   0  0  0  0  0  0  0  0  0  0  0  0
   -4.2810   15.0860   -2.7940 C   0  0  0  0  0  0  0  0  0  0  0  0
   -0.7430   14.5670   -2.0350 O   0  0  0  0  0  0  0  0  0  0  0  0
   -1.8540   14.4010   -3.9960 O   0  0  0  0  0  0  0  0  0  0  0  0
   -4.3250   14.9810   -4.1520 O   0  0  0  0  0  0  0  0  0  0  0  0
  1  2  1  0
  2  3  2  0
  2  4  1  0
  3  5  1  0
  4  6  2  0
  5  7  1  0
  5  8  2  0
  6  8  1  0
  7  9  1  0
  7 10  2  0
  8 11  1  0
M  END
