mac-x0161-diamond-x0962_0_A
     RDKit          3D

 24 27  0  0  0  0  0  0  0  0999 V2000
   -4.5230   15.5350    1.5160 N   0  0  0  0  0  0  0  0  0  0  0  0
   -3.3830   15.5220    0.6170 C   0  0  1  0  0  0  0  0  0  0  0  0
   -2.4660   14.2780    0.7270 C   0  0  1  0  0  0  0  0  0  0  0  0
   -3.9880   15.6620   -0.6830 N   0  0  0  0  0  0  0  0  0  0  0  0
   -3.0040   15.6890   -1.7450 C   0  0  0  0  0  0  0  0  0  0  0  0
   -1.7250   14.0120   -0.6050 C   0  0  1  0  0  0  0  0  0  0  0  0
   -1.3420   14.4230    1.6770 N   0  0  0  0  0  0  0  0  0  0  0  0
   -2.3780   14.3900   -1.8510 N   0  0  0  0  0  0  0  0  0  0  0  0
   -0.5470   14.8370   -0.4720 N   0  0  0  0  0  0  0  0  0  0  0  0
   -0.1370   14.5370    0.8770 C   0  0  0  0  0  0  0  0  0  0  0  0
   -3.2480   13.3560   -2.4730 C   0  0  1  0  0  0  0  0  0  0  0  0
   -4.5880   13.9310   -3.0360 C   0  0  0  0  0  0  0  0  0  0  0  0
   -2.5030   12.4830   -3.4590 C   0  0  0  0  0  0  0  0  0  0  0  0
   -2.8410   11.6220   -4.4800 C   0  0  0  0  0  0  0  0  0  0  0  0
   -1.1360   12.5150   -3.3550 O   0  0  0  0  0  0  0  0  0  0  0  0
   -5.6620   14.1050   -1.9930 C   0  0  0  0  0  0  0  0  0  0  0  0
   -0.5710   11.6770   -4.3030 N   0  0  0  0  0  0  0  0  0  0  0  0
   -1.6050   11.1540   -4.9600 C   0  0  0  0  0  0  0  0  0  0  0  0
   -5.9360   13.1540   -1.0380 N   0  0  0  0  0  0  0  0  0  0  0  0
   -6.5580   15.1250   -1.7290 C   0  0  0  0  0  0  0  0  0  0  0  0
   -1.4350   10.2730   -5.9720 O   0  0  0  0  0  0  0  0  0  0  0  0
   -6.9530   13.6250   -0.2580 C   0  0  0  0  0  0  0  0  0  0  0  0
   -7.3520   14.8120   -0.6520 N   0  0  0  0  0  0  0  0  0  0  0  0
   -0.9280    9.0060   -5.5600 C   0  0  0  0  0  0  0  0  0  0  0  0
  2  1  1  1
  2  3  1  0
  2  4  1  0
  4  5  1  0
  3  6  1  0
  3  7  1  1
  5  8  1  0
  6  8  1  0
  6  9  1  1
  7 10  1  0
  9 10  1  0
  8 11  1  0
 11 12  1  6
 11 13  1  0
 13 14  2  0
 13 15  1  0
 12 16  1  0
 15 17  1  0
 14 18  1  0
 17 18  2  0
 16 19  1  0
 16 20  2  0
 18 21  1  0
 19 22  1  0
 20 23  1  0
 22 23  2  0
 21 24  1  0
M  END
