mac-x0204-diamond-x0849_0_A
     RDKit          3D

 21 23  0  0  0  0  0  0  0  0999 V2000
    0.1900   12.7710   -2.1430 O   0  0  0  0  0  0  0  0  0  0  0  0
    0.0620   13.9570   -2.7460 C   0  0  0  0  0  0  0  0  0  0  0  0
    0.8460   14.8660   -2.5300 O   0  0  0  0  0  0  0  0  0  0  0  0
   -1.0570   14.0110   -3.6960 C   0  0  0  0  0  0  0  0  0  0  0  0
   -2.2910   14.7200   -3.6570 C   0  0  0  0  0  0  0  0  0  0  0  0
   -0.8120   13.2220   -4.8090 C   0  0  0  0  0  0  0  0  0  0  0  0
   -2.8950   15.5650   -2.7020 O   0  0  0  0  0  0  0  0  0  0  0  0
   -3.1100   14.5920   -4.7860 C   0  0  0  0  0  0  0  0  0  0  0  0
   -1.6350   13.0830   -5.8670 N   0  0  0  0  0  0  0  0  0  0  0  0
   -4.2780   15.2640   -4.8880 O   0  0  0  0  0  0  0  0  0  0  0  0
   -2.7660   13.7870   -5.8350 C   0  0  0  0  0  0  0  0  0  0  0  0
   -3.1090   15.3030   -1.3150 C   0  0  0  0  0  0  0  0  0  0  0  0
   -2.0950   14.9320   -0.4090 C   0  0  0  0  0  0  0  0  0  0  0  0
   -4.4080   15.4550   -0.8140 C   0  0  0  0  0  0  0  0  0  0  0  0
   -2.4110   14.7450    0.9480 C   0  0  0  0  0  0  0  0  0  0  0  0
   -4.6080   15.2360    0.5370 C   0  0  0  0  0  0  0  0  0  0  0  0
   -0.7710   14.7550   -0.7910 C   0  0  0  0  0  0  0  0  0  0  0  0
   -3.6410   14.8950    1.4010 N   0  0  0  0  0  0  0  0  0  0  0  0
   -1.4870   14.4170    1.8370 N   0  0  0  0  0  0  0  0  0  0  0  0
    0.1800   14.4100    0.1230 C   0  0  0  0  0  0  0  0  0  0  0  0
   -0.2230   14.2520    1.4280 C   0  0  0  0  0  0  0  0  0  0  0  0
  1  2  1  0
  2  3  2  0
  2  4  1  0
  4  5  2  0
  4  6  1  0
  5  7  1  0
  5  8  1  0
  6  9  2  0
  8 10  1  0
  8 11  2  0
  9 11  1  0
  7 12  1  0
 12 13  1  0
 12 14  2  0
 13 15  2  0
 14 16  1  0
 13 17  1  0
 15 18  1  0
 16 18  2  0
 15 19  1  0
 17 20  2  0
 19 21  2  0
 20 21  1  0
M  END
