mac-x0321-diamond-x0711_0_A
     RDKit          3D

 15 15  0  0  0  0  0  0  0  0999 V2000
   -3.9100   15.2980    1.6370 Cl  0  0  0  0  0  0  0  0  0  0  0  0
   -4.1900   15.0580   -0.0240 C   0  0  0  0  0  0  0  0  0  0  0  0
   -3.0720   15.0400   -0.8590 C   0  0  0  0  0  0  0  0  0  0  0  0
   -5.4610   14.8810   -0.5500 C   0  0  0  0  0  0  0  0  0  0  0  0
   -6.6790   14.8410    0.2920 C   0  0  0  0  0  0  0  0  0  0  0  0
   -3.2160   14.8600   -2.2380 C   0  0  0  0  0  0  0  0  0  0  0  0
   -5.6150   14.7180   -1.9320 C   0  0  0  0  0  0  0  0  0  0  0  0
   -2.0210   14.8260   -3.1300 C   0  0  0  0  0  0  0  0  0  0  0  0
   -6.5340   14.7490    1.6640 N   0  0  0  0  0  0  0  0  0  0  0  0
   -7.7900   14.8720   -0.2080 O   0  0  0  0  0  0  0  0  0  0  0  0
   -4.4980   14.7100   -2.7690 C   0  0  0  0  0  0  0  0  0  0  0  0
   -0.6170   14.4390   -2.6700 C   0  0  0  0  0  0  0  0  0  0  0  0
   -2.1450   15.1020   -4.3100 O   0  0  0  0  0  0  0  0  0  0  0  0
    0.3780   14.9930   -3.0890 O   0  0  0  0  0  0  0  0  0  0  0  0
   -0.5780   13.4190   -1.8110 O   0  0  0  0  0  0  0  0  0  0  0  0
  1  2  1  0
  2  3  2  0
  2  4  1  0
  4  5  1  0
  3  6  1  0
  4  7  2  0
  6  8  1  0
  5  9  1  0
  5 10  2  0
  6 11  2  0
  7 11  1  0
  8 12  1  0
  8 13  2  0
 12 14  2  0
 12 15  1  0
M  END
