mac-x0415-mac-x0132
     RDKit          3D

 27 30  0  0  0  0  0  0  0  0999 V2000
    0.0110   11.0120   -2.6800 O   0  0  0  0  0  0  0  0  0  0  0  0
    0.6690   12.1820   -2.7690 C   0  0  0  0  0  0  0  0  0  0  0  0
    1.0460   12.7830   -1.7820 O   0  0  0  0  0  0  0  0  0  0  0  0
    0.8630   12.6260   -4.1870 C   0  0  0  0  0  0  0  0  0  0  0  0
    0.7410   14.0790   -4.4110 C   0  0  0  0  0  0  0  0  0  0  0  0
    1.7930   15.0090   -3.9970 C   0  0  0  0  0  0  0  0  0  0  0  0
   -0.1580   14.9440   -4.8830 C   0  0  0  0  0  0  0  0  0  0  0  0
    1.6160   16.2710   -4.1940 N   0  0  0  0  0  0  0  0  0  0  0  0
    0.3950   16.3210   -4.9470 C   0  0  2  0  0  0  0  0  0  0  0  0
   -1.4910   14.7770   -5.3590 C   0  0  0  0  0  0  0  0  0  0  0  0
   -0.5640   17.4250   -4.7470 C   0  0  0  0  0  0  0  0  0  0  0  0
   -2.3060   15.8630   -5.4060 C   0  0  0  0  0  0  0  0  0  0  0  0
   -3.5750   15.6730   -5.8540 O   0  0  0  0  0  0  0  0  0  0  0  0
   -1.8520   17.1890   -4.9890 C   0  0  0  0  0  0  0  0  0  0  0  0
   -4.1460   14.4060   -5.5930 C   0  0  0  0  0  0  0  0  0  0  0  0
   -5.3270   14.4440   -4.6440 C   0  0  0  0  0  0  0  0  0  0  0  0
   -5.0600   14.6800   -3.1570 C   0  0  0  0  0  0  0  0  0  0  0  0
   -6.1910   14.5110   -2.3810 C   0  0  0  0  0  0  0  0  0  0  0  0
   -3.8520   15.0280   -2.5170 C   0  0  0  0  0  0  0  0  0  0  0  0
   -6.2200   14.6460   -1.0210 C   0  0  0  0  0  0  0  0  0  0  0  0
   -3.8490   15.1780   -1.1120 C   0  0  0  0  0  0  0  0  0  0  0  0
   -5.0410   14.9800   -0.3620 C   0  0  0  0  0  0  0  0  0  0  0  0
   -7.3950   14.4340   -0.4170 N   0  0  0  0  0  0  0  0  0  0  0  0
   -5.1840   15.0790    1.0250 C   0  0  0  0  0  0  0  0  0  0  0  0
   -7.3990   14.5530    0.9080 C   0  0  0  0  0  0  0  0  0  0  0  0
   -4.1150   15.4060    1.8510 N   0  0  0  0  0  0  0  0  0  0  0  0
   -6.3510   14.8640    1.6640 N   0  0  0  0  0  0  0  0  0  0  0  0
  1  2  1  0
  2  3  2  0
  2  4  1  0
  4  5  1  0
  5  6  1  0
  5  7  2  0
  6  8  2  0
  7  9  1  0
  8  9  1  0
  7 10  1  0
  9 11  1  1
 10 12  2  0
 12 13  1  0
 11 14  2  0
 12 14  1  0
 13 15  1  0
 15 16  1  0
 16 17  1  0
 17 18  2  0
 17 19  1  0
 18 20  1  0
 19 21  2  0
 20 22  2  0
 21 22  1  0
 20 23  1  0
 22 24  1  0
 23 25  2  0
 24 26  1  0
 24 27  2  0
 25 27  1  0
M  END
