mac-x0132-mac-x0441
     RDKit          3D

 31 34  0  0  0  0  0  0  0  0999 V2000
   -4.0420   15.2420    1.7810 N   0  0  0  0  0  0  0  0  0  0  0  0
   -5.0860   15.0120    0.8870 C   0  0  0  0  0  0  0  0  0  0  0  0
   -6.3050   14.8320    1.4370 N   0  0  0  0  0  0  0  0  0  0  0  0
   -4.8500   14.9810   -0.4880 C   0  0  0  0  0  0  0  0  0  0  0  0
   -5.9940   14.7600   -1.2600 C   0  0  0  0  0  0  0  0  0  0  0  0
   -7.3110   14.6230    0.5890 C   0  0  0  0  0  0  0  0  0  0  0  0
   -3.5820   15.1490   -1.1280 C   0  0  0  0  0  0  0  0  0  0  0  0
   -7.2160   14.5830   -0.7400 N   0  0  0  0  0  0  0  0  0  0  0  0
   -5.8540   14.7210   -2.6310 C   0  0  0  0  0  0  0  0  0  0  0  0
   -3.4700   15.0950   -2.5370 C   0  0  0  0  0  0  0  0  0  0  0  0
   -2.1680   15.2580   -3.3100 C   0  0  0  0  0  0  0  0  0  0  0  0
   -4.6230   14.8820   -3.2640 C   0  0  0  0  0  0  0  0  0  0  0  0
   -1.9610   14.2410   -4.4320 C   0  0  0  0  0  0  0  0  0  0  0  0
   -0.4760   13.9620   -4.7550 C   0  0  0  0  0  0  0  0  0  0  0  0
   -0.1750   12.4660   -4.6020 C   0  0  2  0  0  0  0  0  0  0  0  0
    0.8320   12.1540   -3.5140 C   0  0  0  0  0  0  0  0  0  0  0  0
   -0.1170   11.6560   -5.8140 N   0  0  0  0  0  0  0  0  0  0  0  0
    0.7740   10.8900   -3.0400 O   0  0  0  0  0  0  0  0  0  0  0  0
    1.6220   12.9670   -3.0660 O   0  0  0  0  0  0  0  0  0  0  0  0
    0.7680   11.8020   -6.8690 N   0  0  0  0  0  0  0  0  0  0  0  0
   -0.9820   10.6480   -6.0110 C   0  0  0  0  0  0  0  0  0  0  0  0
    0.3810   10.8070   -7.7490 C   0  0  0  0  0  0  0  0  0  0  0  0
   -0.7010   10.0870   -7.2130 C   0  0  0  0  0  0  0  0  0  0  0  0
   -2.0580   10.2220   -5.0830 C   0  0  0  0  0  0  0  0  0  0  0  0
    0.9300   10.4220   -9.1150 C   0  0  0  0  0  0  0  0  0  0  0  0
   -1.4520    8.9340   -7.7800 C   0  0  0  0  0  0  0  0  0  0  0  0
   -3.1020    9.4410   -5.8880 C   0  0  0  0  0  0  0  0  0  0  0  0
    1.6320    9.2590   -9.0990 F   0  0  0  0  0  0  0  0  0  0  0  0
   -0.0940   10.1970   -9.9710 F   0  0  0  0  0  0  0  0  0  0  0  0
    1.6590   11.3370   -9.7700 F   0  0  0  0  0  0  0  0  0  0  0  0
   -2.4430    8.3540   -6.7510 C   0  0  0  0  0  0  0  0  0  0  0  0
  1  2  1  0
  2  3  2  0
  2  4  1  0
  4  5  2  0
  3  6  1  0
  4  7  1  0
  5  8  1  0
  6  8  2  0
  5  9  1  0
  7 10  2  0
 10 11  1  0
  9 12  2  0
 10 12  1  0
 11 13  1  0
 13 14  1  0
 15 14  1  6
 15 16  1  0
 15 17  1  0
 16 18  1  0
 16 19  2  0
 17 20  1  0
 17 21  1  0
 20 22  2  0
 21 23  2  0
 22 23  1  0
 21 24  1  0
 22 25  1  0
 23 26  1  0
 24 27  1  0
 25 28  1  0
 25 29  1  0
 25 30  1  0
 26 31  1  0
 27 31  1  0
M  END
