mac-x0392-mac-x0333
     RDKit          3D

 14 15  0  0  0  0  0  0  0  0999 V2000
   -0.1340   13.5970   -0.0140 N   0  0  0  0  0  0  0  0  0  0  0  0
   -1.1450   14.6730   -0.0340 C   0  0  2  0  0  0  0  0  0  0  0  0
   -2.1410   14.6110    1.1570 C   0  0  0  0  0  0  0  0  0  0  0  0
   -2.0250   14.6430   -1.2950 C   0  0  1  0  0  0  0  0  0  0  0  0
   -1.2650   14.3500   -2.5790 C   0  0  0  0  0  0  0  0  0  0  0  0
   -3.3210   13.8640   -1.0350 C   0  0  0  0  0  0  0  0  0  0  0  0
   -3.4520   15.2800    0.9590 N   0  0  0  0  0  0  0  0  0  0  0  0
   -1.7830   14.0770   -3.6480 O   0  0  0  0  0  0  0  0  0  0  0  0
    0.0810   14.4400   -2.4510 O   0  0  0  0  0  0  0  0  0  0  0  0
   -4.2700   14.6830   -0.1110 C   0  0  2  0  0  0  0  0  0  0  0  0
   -5.1930   13.7910    0.5550 O   0  0  0  0  0  0  0  0  0  0  0  0
   -5.2300   15.6160   -0.8960 C   0  0  0  0  0  0  0  0  0  0  0  0
   -6.5570   15.0700   -0.7950 O   0  0  0  0  0  0  0  0  0  0  0  0
   -6.5100   14.3120    0.3890 C   0  0  0  0  0  0  0  0  0  0  0  0
  2  1  1  6
  2  3  1  0
  2  4  1  0
  4  5  1  6
  4  6  1  0
  3  7  1  0
  5  8  2  0
  5  9  1  0
 10  6  1  6
  7 10  1  0
 10 11  1  0
 10 12  1  0
 12 13  1  0
 11 14  1  0
 13 14  1  0
M  END
