mac-x0415-mac-x0392
     RDKit          3D

 25 27  0  0  0  0  0  0  0  0999 V2000
    0.1540   10.9010   -2.7050 O   0  0  0  0  0  0  0  0  0  0  0  0
    0.6320   12.1540   -2.7270 C   0  0  0  0  0  0  0  0  0  0  0  0
    0.6430   12.7480   -1.5970 N   0  0  0  0  0  0  0  0  0  0  0  0
    1.0610   12.5870   -4.1190 C   0  0  0  0  0  0  0  0  0  0  0  0
    1.1580   14.1050   -1.5690 C   0  0  0  0  0  0  0  0  0  0  0  0
    0.8660   14.0400   -4.4070 C   0  0  0  0  0  0  0  0  0  0  0  0
    0.2250   15.0550   -2.0890 O   0  0  0  0  0  0  0  0  0  0  0  0
    1.8300   15.0940   -4.0740 C   0  0  0  0  0  0  0  0  0  0  0  0
   -0.1110   14.7820   -4.9470 C   0  0  0  0  0  0  0  0  0  0  0  0
   -1.0320   14.5710   -2.2790 C   0  0  0  0  0  0  0  0  0  0  0  0
    1.5260   16.3200   -4.3780 N   0  0  0  0  0  0  0  0  0  0  0  0
    0.2810   16.2180   -5.0750 C   0  0  2  0  0  0  0  0  0  0  0  0
   -1.4140   14.4330   -5.4350 C   0  0  0  0  0  0  0  0  0  0  0  0
   -1.4880   14.1100   -3.3050 O   0  0  0  0  0  0  0  0  0  0  0  0
   -0.7940   17.1730   -4.7660 C   0  0  0  0  0  0  0  0  0  0  0  0
   -2.3570   15.4080   -5.4350 C   0  0  0  0  0  0  0  0  0  0  0  0
   -1.8360   14.6710   -1.0510 C   0  0  0  0  0  0  0  0  0  0  0  0
   -4.0870   15.0870   -6.0510 Br  0  0  0  0  0  0  0  0  0  0  0  0
   -2.0510   16.7580   -4.9560 C   0  0  0  0  0  0  0  0  0  0  0  0
   -1.3790   14.3540    0.2410 C   0  0  0  0  0  0  0  0  0  0  0  0
   -3.1530   15.1260   -1.2490 C   0  0  0  0  0  0  0  0  0  0  0  0
   -0.0940   13.8890    0.5550 N   0  0  0  0  0  0  0  0  0  0  0  0
   -3.9710   15.2550   -0.1550 C   0  0  0  0  0  0  0  0  0  0  0  0
   -2.3070   14.5270    1.2530 C   0  0  0  0  0  0  0  0  0  0  0  0
   -3.5730   14.9650    1.0930 N   0  0  0  0  0  0  0  0  0  0  0  0
  1  2  1  0
  2  3  2  3
  2  4  1  0
  3  5  1  0
  4  6  1  0
  5  7  1  0
  6  8  1  0
  6  9  2  0
  7 10  1  0
  8 11  2  0
  9 12  1  0
 11 12  1  0
  9 13  1  0
 10 14  2  0
 12 15  1  1
 13 16  2  0
 10 17  1  0
 16 18  1  0
 15 19  2  0
 16 19  1  0
 17 20  2  0
 17 21  1  0
 20 22  1  0
 21 23  2  0
 20 24  1  0
 23 25  1  0
 24 25  2  0
M  END
