mac-x0348-diamond-x0685_1_A
     RDKit          3D

 24 26  0  0  0  0  0  0  0  0999 V2000
    0.4050   18.6380   -6.0570 C   0  0  0  0  0  0  0  0  0  0  0  0
   -0.0460   17.4190   -5.4390 N   0  0  0  0  0  0  0  0  0  0  0  0
    0.7470   16.6320   -4.6660 C   0  0  0  0  0  0  0  0  0  0  0  0
   -1.3010   16.8640   -5.5250 C   0  0  0  0  0  0  0  0  0  0  0  0
    0.0340   15.5460   -4.2450 C   0  0  0  0  0  0  0  0  0  0  0  0
   -1.2650   15.6800   -4.7780 C   0  0  0  0  0  0  0  0  0  0  0  0
   -2.4640   17.2670   -6.1820 C   0  0  0  0  0  0  0  0  0  0  0  0
    0.5750   14.4490   -3.3820 C   0  0  0  0  0  0  0  0  0  0  0  0
   -2.4080   14.8820   -4.6820 C   0  0  0  0  0  0  0  0  0  0  0  0
   -3.5780   16.4260   -6.0530 C   0  0  0  0  0  0  0  0  0  0  0  0
   -0.1640   13.0770   -3.4190 C   0  0  2  0  0  0  0  0  0  0  0  0
   -3.5590   15.2650   -5.3250 C   0  0  0  0  0  0  0  0  0  0  0  0
    0.6660   12.1140   -2.5540 C   0  0  0  0  0  0  0  0  0  0  0  0
   -0.5220   12.5210   -4.8400 C   0  0  0  0  0  0  0  0  0  0  0  0
    0.6220   12.5270   -1.2190 O   0  0  0  0  0  0  0  0  0  0  0  0
    0.2550   10.7580   -2.5690 O   0  0  0  0  0  0  0  0  0  0  0  0
    2.0050   12.1660   -2.9730 O   0  0  0  0  0  0  0  0  0  0  0  0
   -0.9220   11.0950   -4.9220 N   0  0  0  0  0  0  0  0  0  0  0  0
   -0.5810   10.5350   -6.2420 C   0  0  0  0  0  0  0  0  0  0  0  0
   -0.6150    8.9960   -6.2950 C   0  0  0  0  0  0  0  0  0  0  0  0
   -1.5050   11.1120   -7.3340 C   0  0  0  0  0  0  0  0  0  0  0  0
   -0.0680    8.5250   -7.6360 C   0  0  0  0  0  0  0  0  0  0  0  0
   -1.0550   10.6570   -8.7180 C   0  0  0  0  0  0  0  0  0  0  0  0
   -0.8710    9.1310   -8.7970 C   0  0  0  0  0  0  0  0  0  0  0  0
  1  2  1  0
  2  3  1  0
  2  4  1  0
  3  5  2  0
  4  6  2  0
  5  6  1  0
  4  7  1  0
  5  8  1  0
  6  9  1  0
  7 10  2  0
 11  8  1  6
  9 12  2  0
 10 12  1  0
 11 13  1  0
 11 14  1  0
 13 15  1  0
 13 16  1  0
 13 17  1  0
 14 18  1  0
 18 19  1  0
 19 20  1  0
 19 21  1  0
 20 22  1  0
 21 23  1  0
 22 24  1  0
 23 24  1  0
M  END
