mac-x0139-mac-x0404
     RDKit          3D

 27 30  0  0  0  0  0  0  0  0999 V2000
   -1.5340   15.5760   -3.1330 C   0  0  0  0  0  0  0  0  0  0  0  0
   -0.5390   15.2680   -2.1090 N   0  0  0  0  0  0  0  0  0  0  0  0
    0.8000   14.6930   -2.5330 C   0  0  0  0  0  0  0  0  0  0  0  0
   -0.9710   15.1200   -0.7960 C   0  0  0  0  0  0  0  0  0  0  0  0
    0.7030   13.7530   -3.7740 C   0  0  2  0  0  0  0  0  0  0  0  0
   -2.2620   15.2780   -0.4110 C   0  0  0  0  0  0  0  0  0  0  0  0
    0.0140   14.7870    0.1200 N   0  0  0  0  0  0  0  0  0  0  0  0
    0.5270   12.3600   -3.1170 C   0  0  0  0  0  0  0  0  0  0  0  0
    1.9330   13.6640   -4.6800 C   0  0  0  0  0  0  0  0  0  0  0  0
   -2.5740   15.0790    1.0190 C   0  0  0  0  0  0  0  0  0  0  0  0
   -0.3240   14.6130    1.3480 C   0  0  0  0  0  0  0  0  0  0  0  0
   -3.5420   15.5960   -0.9660 C   0  0  0  0  0  0  0  0  0  0  0  0
   -0.4940   14.4220   -4.5030 C   0  0  0  0  0  0  0  0  0  0  0  0
    0.6630   12.1330   -1.9240 O   0  0  0  0  0  0  0  0  0  0  0  0
    0.2370   11.3370   -3.9590 O   0  0  0  0  0  0  0  0  0  0  0  0
   -1.5730   14.7330    1.8420 N   0  0  0  0  0  0  0  0  0  0  0  0
   -3.8260   15.2710    1.2880 N   0  0  0  0  0  0  0  0  0  0  0  0
   -4.3920   15.5780    0.0690 C   0  0  0  0  0  0  0  0  0  0  0  0
   -0.4430   15.8200   -4.8830 C   0  0  0  0  0  0  0  0  0  0  0  0
   -1.6640   13.6870   -4.7730 C   0  0  0  0  0  0  0  0  0  0  0  0
   -1.5920   16.4040   -5.4870 C   0  0  0  0  0  0  0  0  0  0  0  0
   -2.7690   14.2850   -5.3720 C   0  0  0  0  0  0  0  0  0  0  0  0
    0.6630   16.6970   -4.7020 C   0  0  0  0  0  0  0  0  0  0  0  0
   -2.7340   15.6300   -5.7180 C   0  0  0  0  0  0  0  0  0  0  0  0
   -1.6070   17.7540   -5.8660 C   0  0  0  0  0  0  0  0  0  0  0  0
    0.6400   18.0380   -5.0880 C   0  0  0  0  0  0  0  0  0  0  0  0
   -0.4990   18.5660   -5.6700 C   0  0  0  0  0  0  0  0  0  0  0  0
  1  2  1  0
  2  3  1  0
  2  4  1  0
  3  5  1  0
  4  6  2  0
  4  7  1  0
  5  8  1  0
  5  9  1  6
  6 10  1  0
  7 11  2  0
  6 12  1  0
  5 13  1  0
  8 14  2  0
  8 15  1  0
 10 16  1  0
 11 16  1  0
 10 17  2  0
 12 18  2  0
 17 18  1  0
 13 19  1  0
 13 20  2  0
 19 21  2  0
 20 22  1  0
 19 23  1  0
 21 24  1  0
 22 24  2  0
 21 25  1  0
 23 26  2  0
 25 27  2  0
 26 27  1  0
M  END
