mac-x0472-mac-x0441
     RDKit          3D

 34 37  0  0  0  0  0  0  0  0999 V2000
   -4.4700   15.4220   -2.3080 O   0  0  0  0  0  0  0  0  0  0  0  0
   -3.4560   14.4510   -2.6470 S   0  0  1  0  0  0  0  0  0  0  0  0
   -2.6610   14.4990   -3.9620 N   0  0  0  0  0  0  0  0  0  0  0  0
   -2.3040   14.7310   -1.4690 N   0  0  0  0  0  0  0  0  0  0  0  0
   -4.1750   12.8400   -2.3490 C   0  0  0  0  0  0  0  0  0  0  0  0
   -1.8110   13.3540   -4.3080 C   0  0  0  0  0  0  0  0  0  0  0  0
   -2.7330   14.8180   -0.2010 C   0  0  0  0  0  0  0  0  0  0  0  0
   -3.4520   11.6910   -2.6800 C   0  0  0  0  0  0  0  0  0  0  0  0
   -5.4530   12.7280   -1.7860 C   0  0  0  0  0  0  0  0  0  0  0  0
   -0.4530   13.8700   -4.7870 C   0  0  0  0  0  0  0  0  0  0  0  0
   -2.0290   14.3850    0.8200 N   0  0  0  0  0  0  0  0  0  0  0  0
   -4.2530   15.4990    0.2570 S   0  0  0  0  0  0  0  0  0  0  0  0
   -4.0040   10.4330   -2.4560 C   0  0  0  0  0  0  0  0  0  0  0  0
   -5.9990   11.4630   -1.5630 C   0  0  0  0  0  0  0  0  0  0  0  0
    0.5790   12.7420   -4.8730 C   0  0  1  0  0  0  0  0  0  0  0  0
   -3.8440   15.1370    1.8670 C   0  0  0  0  0  0  0  0  0  0  0  0
   -2.6730   14.5670    2.0150 N   0  0  0  0  0  0  0  0  0  0  0  0
   -5.2800   10.3240   -1.8990 C   0  0  0  0  0  0  0  0  0  0  0  0
    0.8580   12.1670   -3.4930 C   0  0  0  0  0  0  0  0  0  0  0  0
    0.2450   11.7560   -5.9060 N   0  0  0  0  0  0  0  0  0  0  0  0
    0.4950   10.8680   -3.3480 O   0  0  0  0  0  0  0  0  0  0  0  0
    1.3610   12.7610   -2.5570 O   0  0  0  0  0  0  0  0  0  0  0  0
    0.9920   11.7870   -7.0440 N   0  0  0  0  0  0  0  0  0  0  0  0
   -0.7120   10.7730   -5.9600 C   0  0  0  0  0  0  0  0  0  0  0  0
    0.4930   10.8060   -7.8340 C   0  0  0  0  0  0  0  0  0  0  0  0
   -0.5680   10.1550   -7.1810 C   0  0  0  0  0  0  0  0  0  0  0  0
   -1.7400   10.3770   -4.9610 C   0  0  0  0  0  0  0  0  0  0  0  0
    0.9560   10.4210   -9.2210 C   0  0  0  0  0  0  0  0  0  0  0  0
   -1.4120    9.0210   -7.6560 C   0  0  0  0  0  0  0  0  0  0  0  0
   -2.9090    9.7070   -5.7030 C   0  0  0  0  0  0  0  0  0  0  0  0
    1.6340    9.2430   -9.2140 F   0  0  0  0  0  0  0  0  0  0  0  0
   -0.1100   10.2120  -10.0330 F   0  0  0  0  0  0  0  0  0  0  0  0
    1.6940   11.3150   -9.9010 F   0  0  0  0  0  0  0  0  0  0  0  0
   -2.4070    8.5500   -6.5810 C   0  0  0  0  0  0  0  0  0  0  0  0
  1  2  2  0
  2  3  2  0
  2  4  1  1
  2  5  1  0
  3  6  1  0
  4  7  1  0
  5  8  2  0
  5  9  1  0
  6 10  1  0
  7 11  2  0
  7 12  1  0
  8 13  1  0
  9 14  2  0
 15 10  1  1
 12 16  1  0
 11 17  1  0
 16 17  2  0
 13 18  2  0
 14 18  1  0
 15 19  1  0
 15 20  1  0
 19 21  1  0
 19 22  2  0
 20 23  1  0
 20 24  1  0
 23 25  2  0
 24 26  2  0
 25 26  1  0
 24 27  1  0
 25 28  1  0
 26 29  1  0
 27 30  1  0
 28 31  1  0
 28 32  1  0
 28 33  1  0
 29 34  1  0
 30 34  1  0
M  END
