mac-x0396-mac-x0572
     RDKit          3D

 15 16  0  0  0  0  0  0  0  0999 V2000
   -3.7420   13.2330    0.8700 N   0  0  0  0  0  0  0  0  0  0  0  0
   -3.9030   13.6190   -0.4250 C   0  0  0  0  0  0  0  0  0  0  0  0
   -3.2460   13.1080   -1.3160 O   0  0  0  0  0  0  0  0  0  0  0  0
   -4.8560   14.7550   -0.6790 C   0  0  1  0  0  0  0  0  0  0  0  0
   -6.0520   14.5370   -1.5650 C   0  0  0  0  0  0  0  0  0  0  0  0
   -5.2380   15.3060    0.6560 C   0  0  1  0  0  0  0  0  0  0  0  0
   -3.8260   15.5880   -1.3520 C   0  0  0  0  0  0  0  0  0  0  0  0
   -7.2760   14.3790   -1.1500 N   0  0  0  0  0  0  0  0  0  0  0  0
   -6.6300   14.7980    1.1410 C   0  0  0  0  0  0  0  0  0  0  0  0
   -3.9580   15.2830    1.4760 C   0  0  0  0  0  0  0  0  0  0  0  0
   -2.8050   15.9640   -0.5700 C   0  0  0  0  0  0  0  0  0  0  0  0
   -7.0380   14.7760    2.6090 C   0  0  0  0  0  0  0  0  0  0  0  0
   -7.5060   14.4000    0.1980 C   0  0  0  0  0  0  0  0  0  0  0  0
   -2.7980   15.5970    0.8440 C   0  0  0  0  0  0  0  0  0  0  0  0
   -8.7640   13.9690    0.5500 O   0  0  0  0  0  0  0  0  0  0  0  0
  1  2  1  0
  2  3  2  0
  4  2  1  1
  4  5  1  0
  4  6  1  0
  4  7  1  0
  5  8  2  0
  6  9  1  0
  6 10  1  1
  7 11  2  0
  9 12  1  0
  8 13  1  0
  9 13  2  0
 10 14  2  0
 11 14  1  0
 13 15  1  0
M  END
