mac-x0472-mac-x0437
     RDKit          3D

 31 34  0  0  0  0  0  0  0  0999 V2000
   -4.5150   15.4860   -2.3990 O   0  0  0  0  0  0  0  0  0  0  0  0
   -3.5200   14.4730   -2.6470 S   0  0  1  0  0  0  0  0  0  0  0  0
   -2.7320   14.3240   -3.9650 N   0  0  0  0  0  0  0  0  0  0  0  0
   -2.3330   14.7570   -1.5150 N   0  0  0  0  0  0  0  0  0  0  0  0
   -4.2360   12.8800   -2.3170 C   0  0  0  0  0  0  0  0  0  0  0  0
   -1.5100   15.1130   -4.2180 C   0  0  0  0  0  0  0  0  0  0  0  0
   -2.7210   14.8540   -0.2310 C   0  0  0  0  0  0  0  0  0  0  0  0
   -3.4960   11.7300   -2.5980 C   0  0  0  0  0  0  0  0  0  0  0  0
   -5.5260   12.7790   -1.7840 C   0  0  0  0  0  0  0  0  0  0  0  0
   -0.6880   14.3530   -5.2730 C   0  0  0  0  0  0  0  0  0  0  0  0
   -1.9730   14.4640    0.7770 N   0  0  0  0  0  0  0  0  0  0  0  0
   -4.2470   15.4980    0.2660 S   0  0  0  0  0  0  0  0  0  0  0  0
   -4.0490   10.4770   -2.3570 C   0  0  0  0  0  0  0  0  0  0  0  0
   -6.0720   11.5200   -1.5410 C   0  0  0  0  0  0  0  0  0  0  0  0
   -0.1920   13.0040   -4.7470 C   0  0  2  0  0  0  0  0  0  0  0  0
   -3.7770   15.1860    1.8690 C   0  0  0  0  0  0  0  0  0  0  0  0
   -2.5850   14.6540    1.9890 N   0  0  0  0  0  0  0  0  0  0  0  0
   -5.3370   10.3720   -1.8300 C   0  0  0  0  0  0  0  0  0  0  0  0
    1.3010   12.8470   -4.5340 C   0  0  0  0  0  0  0  0  0  0  0  0
   -0.8040   11.8400   -5.3900 N   0  0  0  0  0  0  0  0  0  0  0  0
    1.4020   12.2040   -3.1860 C   0  0  0  0  0  0  0  0  0  0  0  0
   -2.0140   11.3740   -4.9740 C   0  0  0  0  0  0  0  0  0  0  0  0
   -0.3780   11.0200   -6.4250 C   0  0  0  0  0  0  0  0  0  0  0  0
    2.0590   12.9310   -2.2800 O   0  0  0  0  0  0  0  0  0  0  0  0
    0.9230   11.1270   -2.8790 O   0  0  0  0  0  0  0  0  0  0  0  0
   -2.4040   10.3270   -5.6360 N   0  0  0  0  0  0  0  0  0  0  0  0
   -1.4130   10.0850   -6.5350 C   0  0  0  0  0  0  0  0  0  0  0  0
    0.7460   10.9650   -7.2620 C   0  0  0  0  0  0  0  0  0  0  0  0
   -1.3480    9.0620   -7.4820 C   0  0  0  0  0  0  0  0  0  0  0  0
    0.7870    9.9270   -8.2100 C   0  0  0  0  0  0  0  0  0  0  0  0
   -0.2400    8.9900   -8.3170 C   0  0  0  0  0  0  0  0  0  0  0  0
  1  2  2  0
  2  3  2  0
  2  4  1  1
  2  5  1  0
  3  6  1  0
  4  7  1  0
  5  8  2  0
  5  9  1  0
  6 10  1  0
  7 11  2  0
  7 12  1  0
  8 13  1  0
  9 14  2  0
 15 10  1  6
 12 16  1  0
 11 17  1  0
 16 17  2  0
 13 18  2  0
 14 18  1  0
 15 19  1  0
 15 20  1  0
 19 21  1  0
 20 22  1  0
 20 23  1  0
 21 24  1  0
 21 25  2  0
 22 26  2  0
 23 27  2  0
 26 27  1  0
 23 28  1  0
 27 29  1  0
 28 30  2  0
 29 31  2  0
 30 31  1  0
M  END
