mac-x0404-mac-x0357
     RDKit          3D

 22 24  0  0  0  0  0  0  0  0999 V2000
    1.3600   12.9900   -1.9940 O   0  0  0  0  0  0  0  0  0  0  0  0
    0.0840   12.6010   -2.4150 C   0  0  0  0  0  0  0  0  0  0  0  0
   -0.2920   11.6270   -1.4860 O   0  0  0  0  0  0  0  0  0  0  0  0
   -0.7600   13.7220   -2.3560 O   0  0  0  0  0  0  0  0  0  0  0  0
    0.0050   11.9240   -3.7500 C   0  0  0  0  0  0  0  0  0  0  0  0
    0.5590   12.4360   -4.9170 C   0  0  0  0  0  0  0  0  0  0  0  0
   -0.6650   10.6960   -3.8250 C   0  0  0  0  0  0  0  0  0  0  0  0
   -0.7670    9.9920   -5.0180 C   0  0  0  0  0  0  0  0  0  0  0  0
    0.4870   11.6940   -6.1120 C   0  0  0  0  0  0  0  0  0  0  0  0
    1.1210   13.6810   -4.8130 O   0  0  0  0  0  0  0  0  0  0  0  0
    1.0510   12.0980   -7.2510 O   0  0  0  0  0  0  0  0  0  0  0  0
   -0.1800   10.4900   -6.1620 C   0  0  0  0  0  0  0  0  0  0  0  0
   -0.0650   14.4320   -4.9430 C   0  0  0  0  0  0  0  0  0  0  0  0
   -0.1220   15.8310   -5.1370 C   0  0  0  0  0  0  0  0  0  0  0  0
   -1.2720   13.7060   -4.8860 C   0  0  0  0  0  0  0  0  0  0  0  0
   -1.4010   16.4480   -5.2720 C   0  0  0  0  0  0  0  0  0  0  0  0
   -2.5040   14.3230   -5.0140 C   0  0  0  0  0  0  0  0  0  0  0  0
    1.0000   16.6480   -5.2090 C   0  0  0  0  0  0  0  0  0  0  0  0
   -2.5670   15.6870   -5.2070 C   0  0  0  0  0  0  0  0  0  0  0  0
   -1.5000   17.8210   -5.4800 C   0  0  0  0  0  0  0  0  0  0  0  0
    0.8880   18.0250   -5.4190 C   0  0  0  0  0  0  0  0  0  0  0  0
   -0.3680   18.6010   -5.5570 C   0  0  0  0  0  0  0  0  0  0  0  0
  2  1  1  0
  2  3  1  0
  2  4  1  0
  2  5  1  0
  5  6  2  0
  5  7  1  0
  7  8  2  0
  6  9  1  0
  6 10  1  0
  9 11  1  0
  8 12  1  0
  9 12  2  0
 10 13  1  0
 13 14  1  0
 13 15  2  0
 14 16  2  0
 15 17  1  0
 14 18  1  0
 16 19  1  0
 17 19  2  0
 16 20  1  0
 18 21  2  0
 20 22  2  0
 21 22  1  0
M  END
