mac-x0441-diamond-x0962_0_A
     RDKit          3D

 26 28  0  0  0  0  0  0  0  0999 V2000
    0.4840   10.7580   -3.4140 O   0  0  0  0  0  0  0  0  0  0  0  0
    0.6010   12.0910   -3.5320 C   0  0  0  0  0  0  0  0  0  0  0  0
    0.6550   12.7250   -2.4420 N   0  0  0  0  0  0  0  0  0  0  0  0
    0.6430   12.6360   -4.9260 C   0  0  0  0  0  0  0  0  0  0  0  0
    0.7640   14.1730   -2.5360 C   0  0  0  0  0  0  0  0  0  0  0  0
    0.2940   11.6980   -5.9690 N   0  0  0  0  0  0  0  0  0  0  0  0
    0.1740   14.7830   -1.2800 C   0  0  0  0  0  0  0  0  0  0  0  0
    1.0440   11.6970   -7.1000 N   0  0  0  0  0  0  0  0  0  0  0  0
   -0.7070   10.7730   -6.0130 C   0  0  0  0  0  0  0  0  0  0  0  0
   -1.2980   14.7210   -1.1650 C   0  0  0  0  0  0  0  0  0  0  0  0
    0.4920   10.7450   -7.8810 C   0  0  0  0  0  0  0  0  0  0  0  0
   -0.6010   10.1450   -7.2290 C   0  0  0  0  0  0  0  0  0  0  0  0
   -1.7360   10.4660   -4.9830 C   0  0  0  0  0  0  0  0  0  0  0  0
    0.9420   10.3450   -9.2640 C   0  0  0  0  0  0  0  0  0  0  0  0
   -2.4500   14.7540   -0.8490 C   0  0  0  0  0  0  0  0  0  0  0  0
   -1.5030    9.0600   -7.6910 C   0  0  0  0  0  0  0  0  0  0  0  0
   -2.9040    9.7160   -5.6570 C   0  0  0  0  0  0  0  0  0  0  0  0
    1.6580    9.1870   -9.2430 F   0  0  0  0  0  0  0  0  0  0  0  0
   -0.0840   10.1400  -10.1170 F   0  0  0  0  0  0  0  0  0  0  0  0
    1.6950   11.2780   -9.8840 F   0  0  0  0  0  0  0  0  0  0  0  0
   -2.4040    8.5610   -6.5440 C   0  0  0  0  0  0  0  0  0  0  0  0
   -3.6890   14.8730   -0.2020 C   0  0  0  0  0  0  0  0  0  0  0  0
   -3.7410   15.1120    1.1340 N   0  0  0  0  0  0  0  0  0  0  0  0
   -4.9980   14.8030   -0.6110 C   0  0  0  0  0  0  0  0  0  0  0  0
   -5.0430   15.1750    1.4920 C   0  0  0  0  0  0  0  0  0  0  0  0
   -5.8370   14.9890    0.4610 N   0  0  0  0  0  0  0  0  0  0  0  0
  1  2  1  0
  2  3  2  3
  2  4  1  0
  3  5  1  0
  4  6  1  0
  5  7  1  0
  6  8  1  0
  6  9  1  0
  7 10  1  0
  8 11  2  0
  9 12  2  0
 11 12  1  0
  9 13  1  0
 11 14  1  0
 10 15  3  0
 12 16  1  0
 13 17  1  0
 14 18  1  0
 14 19  1  0
 14 20  1  0
 16 21  1  0
 17 21  1  0
 15 22  1  0
 22 23  1  0
 22 24  2  0
 23 25  1  0
 24 26  1  0
 25 26  2  0
M  END
