mac-x0404-diamond-x0628_0_A
     RDKit          3D

 22 24  0  0  0  0  0  0  0  0999 V2000
    0.7680   13.0940   -1.6610 O   0  0  0  0  0  0  0  0  0  0  0  0
    0.9450   12.3600   -2.7810 C   0  0  0  0  0  0  0  0  0  0  0  0
    0.6960   11.1670   -2.7480 O   0  0  0  0  0  0  0  0  0  0  0  0
    1.4410   13.2100   -3.9450 C   0  0  0  0  0  0  0  0  0  0  0  0
    0.5200   13.2660   -5.0980 N   0  0  0  0  0  0  0  0  0  0  0  0
   -0.4690   14.2860   -5.1360 C   0  0  0  0  0  0  0  0  0  0  0  0
   -0.0710   12.0310   -5.4290 N   0  0  0  0  0  0  0  0  0  0  0  0
   -0.3270   15.7160   -5.2240 C   0  0  0  0  0  0  0  0  0  0  0  0
   -1.7590   13.7460   -5.1080 C   0  0  0  0  0  0  0  0  0  0  0  0
    0.3120   11.2940   -6.4870 N   0  0  0  0  0  0  0  0  0  0  0  0
   -1.1210   11.3880   -4.7730 C   0  0  0  0  0  0  0  0  0  0  0  0
   -1.7960   11.9210   -3.5590 C   0  0  0  0  0  0  0  0  0  0  0  0
   -1.5340   16.4770   -5.2940 C   0  0  0  0  0  0  0  0  0  0  0  0
   -2.8920   14.5070   -5.1620 C   0  0  0  0  0  0  0  0  0  0  0  0
    0.8810   16.4500   -5.2650 C   0  0  0  0  0  0  0  0  0  0  0  0
   -1.4110   10.2620   -5.3950 N   0  0  0  0  0  0  0  0  0  0  0  0
   -0.5210   10.2420   -6.4260 C   0  0  0  0  0  0  0  0  0  0  0  0
   -0.4840    9.1330   -7.3990 C   0  0  0  0  0  0  0  0  0  0  0  0
   -2.7800   15.8640   -5.2580 C   0  0  0  0  0  0  0  0  0  0  0  0
   -1.5100   17.8550   -5.4110 C   0  0  0  0  0  0  0  0  0  0  0  0
    0.8770   17.8460   -5.3840 C   0  0  0  0  0  0  0  0  0  0  0  0
   -0.3220   18.5270   -5.4620 C   0  0  0  0  0  0  0  0  0  0  0  0
  1  2  1  0
  2  3  2  0
  2  4  1  0
  4  5  1  0
  5  6  1  0
  5  7  1  0
  6  8  1  0
  6  9  2  0
  7 10  1  0
  7 11  1  0
 11 12  1  0
  8 13  2  0
  9 14  1  0
  8 15  1  0
 11 16  2  0
 10 17  2  0
 16 17  1  0
 17 18  1  0
 13 19  1  0
 14 19  2  0
 13 20  1  0
 15 21  2  0
 20 22  2  0
 21 22  1  0
M  END
