mac-x0115-mac-x0357
     RDKit          3D

 27 29  0  0  0  0  0  0  0  0999 V2000
   -1.4320   18.2240   -5.4360 C   0  0  0  0  0  0  0  0  0  0  0  0
   -0.1180   17.6480   -4.9080 C   0  0  0  0  0  0  0  0  0  0  0  0
    0.9820   18.2990   -5.7350 C   0  0  0  0  0  0  0  0  0  0  0  0
   -0.1380   16.3130   -5.0660 O   0  0  0  0  0  0  0  0  0  0  0  0
    0.7340   15.4820   -4.3810 C   0  0  0  0  0  0  0  0  0  0  0  0
    0.0300   14.1020   -3.6620 S   0  0  0  0  0  0  0  0  0  0  0  0
   -1.2330   14.6880   -3.7740 O   0  0  0  0  0  0  0  0  0  0  0  0
    1.3670   13.3710   -3.1980 O   0  0  0  0  0  0  0  0  0  0  0  0
   -0.2500   14.2630   -2.0350 N   0  0  0  0  0  0  0  0  0  0  0  0
   -0.3030   12.7970   -4.5910 C   0  0  0  0  0  0  0  0  0  0  0  0
    0.8610   14.3360   -1.0920 C   0  0  0  0  0  0  0  0  0  0  0  0
   -1.4760   14.7570   -1.6010 C   0  0  0  0  0  0  0  0  0  0  0  0
    0.6250   12.4220   -5.5120 C   0  0  0  0  0  0  0  0  0  0  0  0
   -1.4040   11.9580   -4.6490 C   0  0  0  0  0  0  0  0  0  0  0  0
    2.4070   14.2690   -1.6030 S   0  0  0  0  0  0  0  0  0  0  0  0
    1.8900   13.1670   -5.5960 C   0  0  0  0  0  0  0  0  0  0  0  0
    0.4860   14.4560    0.2560 N   0  0  0  0  0  0  0  0  0  0  0  0
   -1.5460   15.6270   -0.3820 C   0  0  2  0  0  0  0  0  0  0  0  0
   -2.6930   14.6380   -2.0550 C   0  0  0  0  0  0  0  0  0  0  0  0
   -1.5560   10.9130   -5.5100 C   0  0  0  0  0  0  0  0  0  0  0  0
    0.5190   11.3990   -6.4110 C   0  0  0  0  0  0  0  0  0  0  0  0
    1.5550   11.1960   -7.3010 O   0  0  0  0  0  0  0  0  0  0  0  0
   -0.8210   14.8820    0.6990 C   0  0  0  0  0  0  0  0  0  0  0  0
   -2.9280   15.8880   -0.2030 N   0  0  0  0  0  0  0  0  0  0  0  0
   -3.6170   15.3470   -1.1840 C   0  0  0  0  0  0  0  0  0  0  0  0
   -0.5830   10.6350   -6.4080 C   0  0  0  0  0  0  0  0  0  0  0  0
   -1.3560   14.7160    1.7810 O   0  0  0  0  0  0  0  0  0  0  0  0
  1  2  1  0
  2  3  1  0
  2  4  1  0
  4  5  1  0
  5  6  1  0
  6  7  2  0
  6  8  1  0
  6  9  1  0
  6 10  1  0
  9 11  1  0
  9 12  1  0
 10 13  2  0
 10 14  1  0
 11 15  2  0
 13 16  1  0
 11 17  1  0
 12 18  1  0
 12 19  2  0
 14 20  2  0
 13 21  1  0
 21 22  1  0
 17 23  1  0
 18 23  1  0
 18 24  1  1
 19 25  1  0
 24 25  2  0
 20 26  1  0
 21 26  2  0
 23 27  2  0
M  END
