mac-x0123-mac-x0139
     RDKit          3D

 29 33  0  0  0  0  0  0  0  0999 V2000
   -4.1010   13.4950    1.6750 N   0  0  0  0  0  0  0  0  0  0  0  0
   -5.0330   13.8410    0.7050 C   0  0  0  0  0  0  0  0  0  0  0  0
   -6.3270   14.0370    0.9460 C   0  0  0  0  0  0  0  0  0  0  0  0
   -4.6010   14.0410   -0.6260 N   0  0  0  0  0  0  0  0  0  0  0  0
   -5.4610   14.3910   -1.6800 C   0  0  0  0  0  0  0  0  0  0  0  0
   -7.1870   14.3880   -0.2190 C   0  0  0  0  0  0  0  0  0  0  0  0
   -7.1540   13.9780    2.1740 C   0  0  0  0  0  0  0  0  0  0  0  0
   -3.3300   13.9610   -1.0810 N   0  0  0  0  0  0  0  0  0  0  0  0
   -6.8110   14.5440   -1.4570 N   0  0  0  0  0  0  0  0  0  0  0  0
   -8.6100   14.5260    0.2230 C   0  0  0  0  0  0  0  0  0  0  0  0
   -8.5170   14.5320    1.7540 C   0  0  0  0  0  0  0  0  0  0  0  0
   -4.7370   14.5360   -2.7920 N   0  0  0  0  0  0  0  0  0  0  0  0
   -3.4440   14.2850   -2.3720 C   0  0  0  0  0  0  0  0  0  0  0  0
   -2.1800   14.3640   -3.2180 C   0  0  0  0  0  0  0  0  0  0  0  0
   -0.9770   14.9100   -2.4580 N   0  0  0  0  0  0  0  0  0  0  0  0
    0.2970   14.9030   -3.1950 C   0  0  0  0  0  0  0  0  0  0  0  0
   -1.1320   14.9210   -1.0390 C   0  0  0  0  0  0  0  0  0  0  0  0
    0.5100   13.6420   -4.0290 C   0  0  0  0  0  0  0  0  0  0  0  0
   -2.2560   15.3530   -0.4530 C   0  0  0  0  0  0  0  0  0  0  0  0
   -0.0880   14.4340   -0.2330 N   0  0  0  0  0  0  0  0  0  0  0  0
    1.0210   12.4830   -3.2170 C   0  0  0  0  0  0  0  0  0  0  0  0
   -2.3960   15.2720    1.0200 C   0  0  0  0  0  0  0  0  0  0  0  0
   -0.2820   14.3850    1.0640 C   0  0  0  0  0  0  0  0  0  0  0  0
   -3.5000   15.8990   -0.8350 C   0  0  0  0  0  0  0  0  0  0  0  0
    1.9630   12.5780   -2.4460 O   0  0  0  0  0  0  0  0  0  0  0  0
    0.3650   11.3200   -3.4020 O   0  0  0  0  0  0  0  0  0  0  0  0
   -1.3880   14.7600    1.7250 N   0  0  0  0  0  0  0  0  0  0  0  0
   -3.5400   15.6990    1.4440 N   0  0  0  0  0  0  0  0  0  0  0  0
   -4.1810   16.0620    0.2880 C   0  0  0  0  0  0  0  0  0  0  0  0
  1  2  1  0
  2  3  2  0
  2  4  1  0
  4  5  1  0
  3  6  1  0
  3  7  1  0
  4  8  1  0
  5  9  1  0
  6  9  2  0
  6 10  1  0
  7 11  1  0
 10 11  1  0
  5 12  2  0
  8 13  2  0
 12 13  1  0
 13 14  1  0
 14 15  1  0
 15 16  1  0
 15 17  1  0
 16 18  1  0
 17 19  2  0
 17 20  1  0
 18 21  1  0
 19 22  1  0
 20 23  2  0
 19 24  1  0
 21 25  2  0
 21 26  1  0
 22 27  1  0
 23 27  1  0
 22 28  2  0
 24 29  2  0
 28 29  1  0
M  END
