mac-x0453-mac-x0178
     RDKit          3D

 22 23  0  0  0  0  0  0  0  0999 V2000
   -6.9580   14.2040    1.1290 N   0  0  0  0  0  0  0  0  0  0  0  0
   -5.7210   14.2510    1.8910 C   0  0  0  0  0  0  0  0  0  0  0  0
   -4.5900   15.1280    1.3300 C   0  0  0  0  0  0  0  0  0  0  0  0
   -4.1520   14.7950   -0.0520 C   0  0  0  0  0  0  0  0  0  0  0  0
   -3.1540   13.9330   -0.4460 C   0  0  0  0  0  0  0  0  0  0  0  0
   -4.7520   15.3570   -1.1550 N   0  0  0  0  0  0  0  0  0  0  0  0
   -3.1590   13.9750   -1.8150 N   0  0  0  0  0  0  0  0  0  0  0  0
   -4.1340   14.8510   -2.1910 C   0  0  0  0  0  0  0  0  0  0  0  0
   -2.3040   13.2330   -2.7390 C   0  0  0  0  0  0  0  0  0  0  0  0
   -1.3340   14.1660   -3.4140 C   0  0  0  0  0  0  0  0  0  0  0  0
    0.0590   14.0040   -3.3320 C   0  0  0  0  0  0  0  0  0  0  0  0
   -1.8590   15.2510   -4.1490 C   0  0  0  0  0  0  0  0  0  0  0  0
    0.6720   12.8750   -2.5830 C   0  0  0  0  0  0  0  0  0  0  0  0
   -1.0090   16.1660   -4.7720 C   0  0  0  0  0  0  0  0  0  0  0  0
    0.9030   14.9360   -3.9650 C   0  0  0  0  0  0  0  0  0  0  0  0
   -1.6880   17.5340   -5.6810 S   0  0  0  0  0  0  0  0  0  0  0  0
    1.5220   12.9650   -1.7360 O   0  0  0  0  0  0  0  0  0  0  0  0
    0.1770   11.6770   -2.9430 O   0  0  0  0  0  0  0  0  0  0  0  0
    0.3740   16.0110   -4.6840 C   0  0  0  0  0  0  0  0  0  0  0  0
   -0.3340   18.1810   -6.4170 N   0  0  0  0  0  0  0  0  0  0  0  0
   -2.5380   17.0470   -6.7370 O   0  0  0  0  0  0  0  0  0  0  0  0
   -2.1450   18.5380   -4.7630 O   0  0  0  0  0  0  0  0  0  0  0  0
  1  2  1  0
  2  3  1  0
  3  4  1  0
  4  5  2  0
  4  6  1  0
  5  7  1  0
  6  8  2  0
  7  8  1  0
  7  9  1  0
  9 10  1  0
 10 11  2  0
 10 12  1  0
 11 13  1  0
 12 14  2  0
 11 15  1  0
 14 16  1  0
 13 17  2  0
 13 18  1  0
 14 19  1  0
 15 19  2  0
 16 20  1  0
 16 21  2  0
 16 22  2  0
M  END
