mac-x0271-mac-x0398
     RDKit          3D

 15 16  0  0  0  0  0  0  0  0999 V2000
   -3.6110   15.1280   -2.9980 C   0  0  0  0  0  0  0  0  0  0  0  0
   -2.2920   15.1090   -2.7350 O   0  0  0  0  0  0  0  0  0  0  0  0
   -4.0260   15.1820   -4.1360 O   0  0  0  0  0  0  0  0  0  0  0  0
   -4.4460   15.0680   -1.7760 C   0  0  0  0  0  0  0  0  0  0  0  0
   -5.8280   14.8610   -1.8200 C   0  0  0  0  0  0  0  0  0  0  0  0
   -3.8120   15.2220   -0.5340 C   0  0  0  0  0  0  0  0  0  0  0  0
   -6.5410   14.7980   -0.6190 C   0  0  0  0  0  0  0  0  0  0  0  0
   -4.5480   15.1620    0.6570 C   0  0  0  0  0  0  0  0  0  0  0  0
   -3.9280   15.3280    1.8820 N   0  0  0  0  0  0  0  0  0  0  0  0
   -5.9140   14.9360    0.6160 C   0  0  0  0  0  0  0  0  0  0  0  0
   -7.9370   14.5870   -0.6800 O   0  0  0  0  0  0  0  0  0  0  0  0
   -6.7370   14.8380    1.8240 C   0  0  0  0  0  0  0  0  0  0  0  0
   -8.7370   14.7890    0.4410 C   0  0  0  0  0  0  0  0  0  0  0  0
   -9.9420   14.9830    0.3820 O   0  0  0  0  0  0  0  0  0  0  0  0
   -8.0550   14.7680    1.7370 C   0  0  0  0  0  0  0  0  0  0  0  0
  1  2  1  0
  1  3  2  0
  1  4  1  0
  4  5  2  0
  4  6  1  0
  5  7  1  0
  6  8  2  0
  8  9  1  0
  7 10  2  0
  8 10  1  0
  7 11  1  0
 10 12  1  0
 11 13  1  0
 13 14  2  0
 12 15  2  0
 13 15  1  0
M  END
