mac-x0116-mac-x0373
     RDKit          3D

 26 29  0  0  0  0  0  0  0  0999 V2000
   -6.0980   14.6680    1.3560 C   0  0  0  0  0  0  0  0  0  0  0  0
   -4.6900   14.9840    1.4680 N   0  0  0  0  0  0  0  0  0  0  0  0
   -3.8000   14.9070    0.4070 C   0  0  0  0  0  0  0  0  0  0  0  0
   -6.4740   13.2360    1.5010 C   0  0  0  0  0  0  0  0  0  0  0  0
   -6.4290   12.4750    0.3670 O   0  0  0  0  0  0  0  0  0  0  0  0
   -6.8820   12.4640    2.5690 C   0  0  0  0  0  0  0  0  0  0  0  0
   -7.0990   11.1700    2.0660 C   0  0  0  0  0  0  0  0  0  0  0  0
   -6.8090   11.2260    0.7240 C   0  0  0  0  0  0  0  0  0  0  0  0
   -4.2540   14.9730   -0.9170 N   0  0  0  0  0  0  0  0  0  0  0  0
   -2.4890   14.7640    0.6740 C   0  0  0  0  0  0  0  0  0  0  0  0
   -3.3820   14.8570   -1.8840 C   0  0  0  0  0  0  0  0  0  0  0  0
   -1.5730   14.6890   -0.4460 C   0  0  0  0  0  0  0  0  0  0  0  0
   -1.7390   14.6680    1.8110 N   0  0  0  0  0  0  0  0  0  0  0  0
   -2.0120   14.6810   -1.7150 N   0  0  0  0  0  0  0  0  0  0  0  0
   -0.3620   14.6030   -0.0040 N   0  0  0  0  0  0  0  0  0  0  0  0
   -0.5240   14.5870    1.3620 C   0  0  0  0  0  0  0  0  0  0  0  0
   -1.1740   13.6720   -2.3540 C   0  0  2  0  0  0  0  0  0  0  0  0
    0.2920   14.0990   -2.3820 C   0  0  0  0  0  0  0  0  0  0  0  0
   -1.6970   12.8390   -3.4960 C   0  0  0  0  0  0  0  0  0  0  0  0
    1.1130   13.0850   -2.0030 O   0  0  0  0  0  0  0  0  0  0  0  0
    0.7520   15.1890   -2.6770 O   0  0  0  0  0  0  0  0  0  0  0  0
   -1.1500   12.8610   -4.7860 C   0  0  0  0  0  0  0  0  0  0  0  0
   -2.7750   11.9830   -3.2220 C   0  0  0  0  0  0  0  0  0  0  0  0
   -1.6700   12.0360   -5.7810 C   0  0  0  0  0  0  0  0  0  0  0  0
   -3.2920   11.1600   -4.2160 C   0  0  0  0  0  0  0  0  0  0  0  0
   -2.7370   11.1860   -5.4940 C   0  0  0  0  0  0  0  0  0  0  0  0
  1  2  1  0
  2  3  1  0
  1  4  1  0
  4  5  1  0
  4  6  2  0
  6  7  1  0
  5  8  1  0
  7  8  2  0
  3  9  1  0
  3 10  2  0
  9 11  2  0
 10 12  1  0
 10 13  1  0
 11 14  1  0
 12 14  1  0
 12 15  2  0
 13 16  2  0
 15 16  1  0
 14 17  1  0
 17 18  1  6
 17 19  1  0
 18 20  1  0
 18 21  2  0
 19 22  2  0
 19 23  1  0
 22 24  1  0
 23 25  2  0
 24 26  2  0
 25 26  1  0
M  END
