mac-x0361-mac-x0379
     RDKit          3D

 12 12  0  0  0  0  0  0  0  0999 V2000
   -6.2480   14.8620    1.6520 N   0  0  0  0  0  0  0  0  0  0  0  0
   -6.4230   14.7320    0.2920 C   0  0  0  0  0  0  0  0  0  0  0  0
   -7.5560   14.5660   -0.1520 O   0  0  0  0  0  0  0  0  0  0  0  0
   -5.2420   14.7990   -0.6260 C   0  0  0  0  0  0  0  0  0  0  0  0
   -3.9670   14.6110   -0.0820 C   0  0  0  0  0  0  0  0  0  0  0  0
   -5.3670   15.0370   -2.0050 C   0  0  0  0  0  0  0  0  0  0  0  0
   -2.8330   14.6540   -0.9020 C   0  0  0  0  0  0  0  0  0  0  0  0
   -4.2240   15.0770   -2.8280 C   0  0  0  0  0  0  0  0  0  0  0  0
   -2.9450   14.8820   -2.2750 C   0  0  0  0  0  0  0  0  0  0  0  0
   -1.7320   14.9190   -3.1590 C   0  0  0  0  0  0  0  0  0  0  0  0
   -1.7060   14.8080   -4.3700 O   0  0  0  0  0  0  0  0  0  0  0  0
   -0.5760   15.0900   -2.4740 O   0  0  0  0  0  0  0  0  0  0  0  0
  1  2  1  0
  2  3  2  0
  2  4  1  0
  4  5  2  0
  4  6  1  0
  5  7  1  0
  6  8  2  0
  7  9  2  0
  8  9  1  0
  9 10  1  0
 10 11  2  0
 10 12  1  0
M  END
