mac-x0284-mac-x0115
     RDKit          3D

 20 21  0  0  0  0  0  0  0  0999 V2000
   -3.7520   15.2300    0.8740 C   0  0  0  0  0  0  0  0  0  0  0  0
   -3.2870   15.2980   -0.5530 C   0  0  0  0  0  0  0  0  0  0  0  0
   -4.1520   15.2510   -1.5930 C   0  0  0  0  0  0  0  0  0  0  0  0
   -1.7820   15.4580   -0.8230 C   0  0  2  0  0  0  0  0  0  0  0  0
   -1.3440   15.0860   -2.2530 C   0  0  1  0  0  0  0  0  0  0  0  0
   -3.7180   15.3390   -2.9760 C   0  0  0  0  0  0  0  0  0  0  0  0
   -0.7700   14.8870    0.1950 C   0  0  0  0  0  0  0  0  0  0  0  0
   -0.7150   13.7160   -2.5630 C   0  0  0  0  0  0  0  0  0  0  0  0
   -1.0550   14.6250    1.3670 O   0  0  0  0  0  0  0  0  0  0  0  0
   -2.4220   15.2770   -3.3230 C   0  0  0  0  0  0  0  0  0  0  0  0
   -0.0730   15.7230   -2.3690 N   0  0  0  0  0  0  0  0  0  0  0  0
    0.5190   14.7070   -0.2840 N   0  0  0  0  0  0  0  0  0  0  0  0
   -2.0080   15.3470   -4.6390 O   0  0  0  0  0  0  0  0  0  0  0  0
    0.1790   13.7830   -3.7210 O   0  0  0  0  0  0  0  0  0  0  0  0
    0.7890   15.1170   -1.4860 C   0  0  0  0  0  0  0  0  0  0  0  0
    0.5760   15.0550   -4.3480 C   0  0  0  0  0  0  0  0  0  0  0  0
   -0.4250   16.0860   -4.2690 O   0  0  0  0  0  0  0  0  0  0  0  0
   -0.3510   17.1370   -5.2640 C   0  0  0  0  0  0  0  0  0  0  0  0
   -1.4870   18.1400   -5.1380 C   0  0  0  0  0  0  0  0  0  0  0  0
    0.9700   17.8680   -5.1520 C   0  0  0  0  0  0  0  0  0  0  0  0
  1  2  1  0
  2  3  2  0
  4  2  1  1
  4  5  1  0
  3  6  1  0
  4  7  1  0
  5  8  1  1
  7  9  2  0
  5 10  1  0
  6 10  2  0
  5 11  1  0
  7 12  1  0
 10 13  1  0
  8 14  1  0
 11 15  1  0
 12 15  2  0
 14 16  1  0
 16 17  1  0
 17 18  1  0
 18 19  1  0
 18 20  1  0
M  END
