mac-x0584-mac-x0137
     RDKit          3D

 19 22  0  0  0  0  0  0  0  0999 V2000
   -2.0250   12.0110   -4.0210 F   0  0  0  0  0  0  0  0  0  0  0  0
   -0.8420   12.2040   -3.3760 C   0  0  1  0  0  0  0  0  0  0  0  0
    0.3090   11.2290   -3.6710 C   0  0  0  0  0  0  0  0  0  0  0  0
    0.0490   13.2900   -4.0100 C   0  0  2  0  0  0  0  0  0  0  0  0
    1.2680   12.4400   -3.6180 C   0  0  0  0  0  0  0  0  0  0  0  0
   -0.1470   14.7120   -3.5280 C   0  0  1  0  0  0  0  0  0  0  0  0
   -0.4590   15.6760   -4.6700 C   0  0  0  0  0  0  0  0  0  0  0  0
   -1.3600   14.7900   -2.7030 N   0  0  0  0  0  0  0  0  0  0  0  0
   -2.5150   15.0670   -3.5810 C   0  0  0  0  0  0  0  0  0  0  0  0
   -1.9280   15.3990   -4.9520 C   0  0  0  0  0  0  0  0  0  0  0  0
   -1.4470   14.7750   -1.3080 C   0  0  0  0  0  0  0  0  0  0  0  0
   -0.3510   14.5690   -0.4900 N   0  0  0  0  0  0  0  0  0  0  0  0
   -2.5970   14.9800   -0.6460 C   0  0  0  0  0  0  0  0  0  0  0  0
   -0.4530   14.5450    0.8760 C   0  0  0  0  0  0  0  0  0  0  0  0
   -2.6210   14.9710    0.8390 C   0  0  0  0  0  0  0  0  0  0  0  0
   -3.9580   15.2530   -0.9830 C   0  0  0  0  0  0  0  0  0  0  0  0
   -1.5110   14.7200    1.5830 N   0  0  0  0  0  0  0  0  0  0  0  0
   -3.8000   15.2350    1.3130 N   0  0  0  0  0  0  0  0  0  0  0  0
   -4.5880   15.3950    0.1860 C   0  0  0  0  0  0  0  0  0  0  0  0
  2  1  1  6
  2  3  1  0
  2  4  1  0
  3  5  1  0
  4  5  1  1
  4  6  1  0
  6  7  1  6
  6  8  1  0
  8  9  1  0
  7 10  1  0
  9 10  1  0
  8 11  1  0
 11 12  1  0
 11 13  2  0
 12 14  1  0
 13 15  1  0
 13 16  1  0
 14 17  2  0
 15 17  1  0
 15 18  2  0
 16 19  2  0
 18 19  1  0
M  END
