mac-x0397-mac-x0437
     RDKit          3D

 28 31  0  0  0  0  0  0  0  0999 V2000
   -6.4050   14.8570   -2.6390 Cl  0  0  0  0  0  0  0  0  0  0  0  0
   -4.8800   15.0640   -1.9040 C   0  0  0  0  0  0  0  0  0  0  0  0
   -4.9050   15.0980   -0.5120 C   0  0  0  0  0  0  0  0  0  0  0  0
   -3.6850   15.1880   -2.6250 C   0  0  0  0  0  0  0  0  0  0  0  0
   -6.0070   14.9720    0.3180 N   0  0  0  0  0  0  0  0  0  0  0  0
   -3.6910   15.2780    0.1340 C   0  0  0  0  0  0  0  0  0  0  0  0
   -2.4780   15.3520   -1.9330 C   0  0  0  0  0  0  0  0  0  0  0  0
   -1.1390   15.4790   -2.6130 C   0  0  0  0  0  0  0  0  0  0  0  0
   -5.6300   15.0580    1.5560 C   0  0  0  0  0  0  0  0  0  0  0  0
   -3.9500   15.3150    1.8030 S   0  0  0  0  0  0  0  0  0  0  0  0
   -2.4820   15.4030   -0.5390 C   0  0  0  0  0  0  0  0  0  0  0  0
   -6.4980   14.9580    2.5770 N   0  0  0  0  0  0  0  0  0  0  0  0
    0.0110   15.0110   -1.6960 C   0  0  0  0  0  0  0  0  0  0  0  0
    1.2580   14.4880   -2.4150 C   0  0  0  0  0  0  0  0  0  0  0  0
    1.4370   13.0770   -2.1990 O   0  0  0  0  0  0  0  0  0  0  0  0
    1.1770   12.2550   -3.2410 C   0  0  0  0  0  0  0  0  0  0  0  0
    0.6940   11.1360   -3.1310 O   0  0  0  0  0  0  0  0  0  0  0  0
    1.5620   12.8990   -4.5560 C   0  0  0  0  0  0  0  0  0  0  0  0
    0.3340   13.1850   -5.4030 C   0  0  0  0  0  0  0  0  0  0  0  0
   -0.4940   12.0150   -5.6140 N   0  0  0  0  0  0  0  0  0  0  0  0
   -1.6370   11.7050   -4.9310 C   0  0  0  0  0  0  0  0  0  0  0  0
   -0.2690   11.0250   -6.5350 C   0  0  0  0  0  0  0  0  0  0  0  0
   -2.1630   10.5750   -5.3490 N   0  0  0  0  0  0  0  0  0  0  0  0
   -1.3230   10.1390   -6.3460 C   0  0  0  0  0  0  0  0  0  0  0  0
    0.7300   10.8250   -7.4880 C   0  0  0  0  0  0  0  0  0  0  0  0
   -1.3990    8.9840   -7.1380 C   0  0  0  0  0  0  0  0  0  0  0  0
    0.6380    9.6700   -8.2710 C   0  0  0  0  0  0  0  0  0  0  0  0
   -0.4060    8.7630   -8.1010 C   0  0  0  0  0  0  0  0  0  0  0  0
  1  2  1  0
  2  3  2  0
  2  4  1  0
  3  5  1  0
  3  6  1  0
  4  7  2  0
  7  8  1  0
  5  9  2  0
  6 10  1  0
  9 10  1  0
  6 11  2  0
  7 11  1  0
  9 12  1  0
  8 13  1  0
 13 14  1  0
 14 15  1  0
 15 16  1  0
 16 17  2  0
 16 18  1  0
 18 19  1  0
 19 20  1  0
 20 21  1  0
 20 22  1  0
 21 23  2  0
 22 24  2  0
 23 24  1  0
 22 25  1  0
 24 26  1  0
 25 27  2  0
 26 28  2  0
 27 28  1  0
M  END
