mac-x0271-mac-x0179
     RDKit          3D

 30 33  0  0  0  0  0  0  0  0999 V2000
   -3.8670   15.0600   -3.2580 O   0  0  0  0  0  0  0  0  0  0  0  0
   -4.4670   14.9700   -2.0350 C   0  0  0  0  0  0  0  0  0  0  0  0
   -3.6810   14.5990   -0.9400 C   0  0  0  0  0  0  0  0  0  0  0  0
   -5.8270   15.2400   -1.9000 C   0  0  0  0  0  0  0  0  0  0  0  0
   -2.2070   14.2850   -1.1230 C   0  0  0  0  0  0  0  0  0  0  0  0
   -6.4030   15.1330   -0.6420 C   0  0  0  0  0  0  0  0  0  0  0  0
   -4.2900   14.5130    0.3320 C   0  0  0  0  0  0  0  0  0  0  0  0
   -2.0160   12.9210   -1.8410 C   0  0  0  0  0  0  0  0  0  0  0  0
   -5.6570   14.7800    0.4770 C   0  0  0  0  0  0  0  0  0  0  0  0
   -7.7870   15.3890   -0.5270 O   0  0  0  0  0  0  0  0  0  0  0  0
   -1.5840   13.0740   -3.3130 C   0  0  0  0  0  0  0  0  0  0  0  0
   -6.3340   14.6920    1.7610 C   0  0  0  0  0  0  0  0  0  0  0  0
   -8.4840   14.9990    0.6120 C   0  0  0  0  0  0  0  0  0  0  0  0
   -9.7030   14.8460    0.6360 O   0  0  0  0  0  0  0  0  0  0  0  0
   -1.8560   11.9080   -4.1760 N   0  0  0  0  0  0  0  0  0  0  0  0
   -7.6680   14.7880    1.8220 C   0  0  0  0  0  0  0  0  0  0  0  0
   -1.1110   11.4740   -5.1500 C   0  0  0  0  0  0  0  0  0  0  0  0
    0.0840   12.0940   -5.4440 N   0  0  0  0  0  0  0  0  0  0  0  0
   -1.2490   10.3690   -6.1380 C   0  0  0  0  0  0  0  0  0  0  0  0
    0.8690   12.8590   -4.4980 C   0  0  0  0  0  0  0  0  0  0  0  0
    0.7130   11.5120   -6.4910 C   0  0  0  0  0  0  0  0  0  0  0  0
   -0.1260   10.4200   -6.9570 C   0  0  0  0  0  0  0  0  0  0  0  0
   -2.2070    9.3920   -6.3760 C   0  0  0  0  0  0  0  0  0  0  0  0
    1.0130   12.1530   -3.1590 C   0  0  0  0  0  0  0  0  0  0  0  0
    1.7810   11.7900   -6.9610 O   0  0  0  0  0  0  0  0  0  0  0  0
    0.1040    9.5510   -8.0150 C   0  0  0  0  0  0  0  0  0  0  0  0
   -2.0040    8.4940   -7.4400 C   0  0  0  0  0  0  0  0  0  0  0  0
    1.5660   12.8760   -2.1630 O   0  0  0  0  0  0  0  0  0  0  0  0
    0.6580   11.0040   -2.9330 O   0  0  0  0  0  0  0  0  0  0  0  0
   -0.8590    8.5710   -8.2560 C   0  0  0  0  0  0  0  0  0  0  0  0
  1  2  1  0
  2  3  2  0
  2  4  1  0
  3  5  1  0
  4  6  2  0
  3  7  1  0
  5  8  1  0
  6  9  1  0
  7  9  2  0
  6 10  1  0
  8 11  1  0
  9 12  1  0
 10 13  1  0
 13 14  2  0
 11 15  1  0
 12 16  2  0
 13 16  1  0
 15 17  2  3
 17 18  1  0
 17 19  1  0
 18 20  1  0
 18 21  1  0
 19 22  2  0
 21 22  1  0
 19 23  1  0
 20 24  1  0
 21 25  2  0
 22 26  1  0
 23 27  2  0
 24 28  1  0
 24 29  2  0
 26 30  2  0
 27 30  1  0
M  END
