mac-x0321-mac-x0357
     RDKit          3D

 20 21  0  0  0  0  0  0  0  0999 V2000
   -4.2890   15.4800    1.6190 Cl  0  0  0  0  0  0  0  0  0  0  0  0
   -4.3050   15.3120   -0.0820 C   0  0  0  0  0  0  0  0  0  0  0  0
   -3.1200   15.0170   -0.7370 C   0  0  0  0  0  0  0  0  0  0  0  0
   -5.4940   15.4770   -0.7820 C   0  0  0  0  0  0  0  0  0  0  0  0
   -3.1150   14.8860   -2.1290 C   0  0  0  0  0  0  0  0  0  0  0  0
   -5.4970   15.3470   -2.1640 C   0  0  0  0  0  0  0  0  0  0  0  0
   -1.8640   14.5740   -2.8810 C   0  0  0  0  0  0  0  0  0  0  0  0
   -4.3110   15.0540   -2.8350 C   0  0  0  0  0  0  0  0  0  0  0  0
   -0.7890   14.1720   -2.1290 N   0  0  0  0  0  0  0  0  0  0  0  0
   -1.8560   14.6920   -4.1000 O   0  0  0  0  0  0  0  0  0  0  0  0
    0.0530   13.2820   -2.5680 C   0  0  0  0  0  0  0  0  0  0  0  0
    1.1190   12.8410   -1.8750 O   0  0  0  0  0  0  0  0  0  0  0  0
   -0.0300   12.6060   -3.8910 C   0  0  0  0  0  0  0  0  0  0  0  0
    1.0580   12.5660   -4.8000 C   0  0  0  0  0  0  0  0  0  0  0  0
   -1.2500   11.9880   -4.2250 C   0  0  0  0  0  0  0  0  0  0  0  0
    2.3870   13.2080   -4.4880 C   0  0  0  0  0  0  0  0  0  0  0  0
   -1.4100   11.3340   -5.4440 C   0  0  0  0  0  0  0  0  0  0  0  0
    0.8560   11.8980   -6.0180 C   0  0  0  0  0  0  0  0  0  0  0  0
    1.8190   11.7890   -6.9660 O   0  0  0  0  0  0  0  0  0  0  0  0
   -0.3540   11.2910   -6.3410 C   0  0  0  0  0  0  0  0  0  0  0  0
  1  2  1  0
  2  3  2  0
  2  4  1  0
  3  5  1  0
  4  6  2  0
  5  7  1  0
  5  8  2  0
  6  8  1  0
  7  9  1  0
  7 10  2  0
  9 11  2  3
 11 12  1  0
 11 13  1  0
 13 14  2  0
 13 15  1  0
 14 16  1  0
 15 17  2  0
 14 18  1  0
 18 19  1  0
 17 20  1  0
 18 20  2  0
M  END
