mac-x0180-mac-x0139
     RDKit          3D

 21 22  0  0  0  0  0  0  0  0999 V2000
   -7.8770   14.5550    1.3510 C   0  0  0  0  0  0  0  0  0  0  0  0
   -6.7970   14.6250    0.3040 C   0  0  0  0  0  0  0  0  0  0  0  0
   -7.0600   14.8140   -0.8770 O   0  0  0  0  0  0  0  0  0  0  0  0
   -5.5210   14.4600    0.8030 N   0  0  0  0  0  0  0  0  0  0  0  0
   -4.3450   15.0070    0.1520 C   0  0  1  0  0  0  0  0  0  0  0  0
   -3.1750   14.0100    0.2210 C   0  0  0  0  0  0  0  0  0  0  0  0
   -4.6250   15.4130   -1.2800 C   0  0  0  0  0  0  0  0  0  0  0  0
   -1.9970   14.5970   -0.5780 C   0  0  1  0  0  0  0  0  0  0  0  0
   -3.7430   15.2280   -2.2890 C   0  0  0  0  0  0  0  0  0  0  0  0
   -2.3820   14.5820   -2.0780 C   0  0  1  0  0  0  0  0  0  0  0  0
   -1.7740   15.9450    0.0090 C   0  0  0  0  0  0  0  0  0  0  0  0
   -0.6850   13.9580   -0.2490 N   0  0  0  0  0  0  0  0  0  0  0  0
   -1.3110   15.1660   -3.0050 C   0  0  0  0  0  0  0  0  0  0  0  0
   -1.2990   15.5260    1.2920 N   0  0  0  0  0  0  0  0  0  0  0  0
   -0.2420   14.6190    0.9780 C   0  0  0  0  0  0  0  0  0  0  0  0
   -1.5070   15.9480   -3.9230 O   0  0  0  0  0  0  0  0  0  0  0  0
   -0.0720   14.6750   -2.6930 O   0  0  0  0  0  0  0  0  0  0  0  0
    0.4260   13.7690   -3.6990 C   0  0  0  0  0  0  0  0  0  0  0  0
    1.0220   12.5430   -3.0310 C   0  0  0  0  0  0  0  0  0  0  0  0
    1.8310   12.6050   -2.1280 O   0  0  0  0  0  0  0  0  0  0  0  0
    0.5710   11.3650   -3.5170 O   0  0  0  0  0  0  0  0  0  0  0  0
  1  2  1  0
  2  3  2  0
  2  4  1  0
  5  4  1  6
  5  6  1  0
  5  7  1  0
  8  6  1  1
  7  9  2  0
  8 10  1  0
  9 10  1  0
  8 11  1  0
  8 12  1  0
 10 13  1  6
 11 14  1  0
 12 15  1  0
 14 15  1  0
 13 16  2  0
 13 17  1  0
 17 18  1  0
 18 19  1  0
 19 20  2  0
 19 21  1  0
M  END
