mac-x0305-mac-x0206
     RDKit          3D

 20 21  0  0  0  0  0  0  0  0999 V2000
    0.5220   12.5720   -1.0850 O   0  0  0  0  0  0  0  0  0  0  0  0
    0.3340   13.7810   -1.6510 C   0  0  0  0  0  0  0  0  0  0  0  0
    1.2320   14.3290   -2.2490 O   0  0  0  0  0  0  0  0  0  0  0  0
   -1.0300   14.2840   -1.4990 C   0  0  0  0  0  0  0  0  0  0  0  0
   -1.6390   14.6250   -0.2910 C   0  0  0  0  0  0  0  0  0  0  0  0
   -1.6190   14.3710   -2.7180 N   0  0  0  0  0  0  0  0  0  0  0  0
   -1.0910   14.5640    0.9810 O   0  0  0  0  0  0  0  0  0  0  0  0
   -2.9340   15.0670   -0.4670 C   0  0  0  0  0  0  0  0  0  0  0  0
   -2.8630   14.8060   -2.7880 C   0  0  0  0  0  0  0  0  0  0  0  0
   -3.7550   15.4530    0.4840 N   0  0  0  0  0  0  0  0  0  0  0  0
   -3.5410   15.1580   -1.6940 C   0  0  0  0  0  0  0  0  0  0  0  0
   -4.9220   15.5520   -0.1860 C   0  0  0  0  0  0  0  0  0  0  0  0
   -5.0680   15.9800   -1.3250 O   0  0  0  0  0  0  0  0  0  0  0  0
   -6.0740   15.0510    0.4820 C   0  0  0  0  0  0  0  0  0  0  0  0
   -7.1920   14.6900   -0.2480 C   0  0  0  0  0  0  0  0  0  0  0  0
   -6.0430   14.9550    1.8500 C   0  0  0  0  0  0  0  0  0  0  0  0
   -7.2620   14.7680   -1.6170 O   0  0  0  0  0  0  0  0  0  0  0  0
   -8.3120   14.2270    0.4230 C   0  0  0  0  0  0  0  0  0  0  0  0
   -7.1510   14.4950    2.5290 C   0  0  0  0  0  0  0  0  0  0  0  0
   -8.2870   14.1320    1.8180 C   0  0  0  0  0  0  0  0  0  0  0  0
  1  2  1  0
  2  3  2  0
  2  4  1  0
  4  5  2  0
  4  6  1  0
  5  7  1  0
  5  8  1  0
  6  9  2  0
  8 10  1  0
  8 11  2  0
  9 11  1  0
 10 12  1  0
 12 13  2  0
 12 14  1  0
 14 15  2  0
 14 16  1  0
 15 17  1  0
 15 18  1  0
 16 19  2  0
 18 20  2  0
 19 20  1  0
M  END
