mac-x0326-mac-x0455
     RDKit          3D

 25 27  0  0  0  0  0  0  0  0999 V2000
   -6.4750   15.5400   -1.3480 Cl  0  0  0  0  0  0  0  0  0  0  0  0
   -4.8070   15.2500   -1.0570 C   0  0  0  0  0  0  0  0  0  0  0  0
   -3.9570   15.0900   -2.1320 C   0  0  0  0  0  0  0  0  0  0  0  0
   -4.3310   15.1760    0.2510 C   0  0  0  0  0  0  0  0  0  0  0  0
   -2.6070   14.8490   -1.8720 C   0  0  0  0  0  0  0  0  0  0  0  0
   -2.9790   14.9340    0.5220 C   0  0  0  0  0  0  0  0  0  0  0  0
   -1.6740   14.6780   -2.8200 N   0  0  0  0  0  0  0  0  0  0  0  0
   -2.1200   14.7720   -0.5670 C   0  0  0  0  0  0  0  0  0  0  0  0
   -0.4980   14.4820   -2.2900 C   0  0  0  0  0  0  0  0  0  0  0  0
   -0.4130   14.4710   -0.5870 S   0  0  0  0  0  0  0  0  0  0  0  0
    0.5760   14.3180   -3.2950 C   0  0  1  0  0  0  0  0  0  0  0  0
    1.3190   12.9780   -3.3650 C   0  0  0  0  0  0  0  0  0  0  0  0
   -0.3160   14.5950   -4.5200 C   0  0  2  0  0  0  0  0  0  0  0  0
    1.5490   15.3640   -2.9950 O   0  0  0  0  0  0  0  0  0  0  0  0
    0.7360   11.9910   -2.4230 C   0  0  0  0  0  0  0  0  0  0  0  0
    0.2700   15.7050   -5.3170 C   0  0  0  0  0  0  0  0  0  0  0  0
   -1.5590   15.2110   -4.1510 O   0  0  0  0  0  0  0  0  0  0  0  0
   -0.6280   13.2300   -5.1370 C   0  0  0  0  0  0  0  0  0  0  0  0
    0.2440   10.8540   -2.9500 O   0  0  0  0  0  0  0  0  0  0  0  0
    0.7000   12.2390   -1.2380 O   0  0  0  0  0  0  0  0  0  0  0  0
   -1.8230   12.5220   -4.8710 C   0  0  0  0  0  0  0  0  0  0  0  0
    0.3090   12.6360   -5.9880 C   0  0  0  0  0  0  0  0  0  0  0  0
   -2.0550   11.2720   -5.4410 C   0  0  0  0  0  0  0  0  0  0  0  0
    0.0800   11.3940   -6.5550 C   0  0  0  0  0  0  0  0  0  0  0  0
   -1.1020   10.7050   -6.2830 C   0  0  0  0  0  0  0  0  0  0  0  0
  1  2  1  0
  2  3  2  0
  2  4  1  0
  3  5  1  0
  4  6  2  0
  5  7  1  0
  5  8  2  0
  6  8  1  0
  7  9  2  0
  8 10  1  0
  9 10  1  0
  9 11  1  0
 11 12  1  0
 11 13  1  0
 11 14  1  1
 12 15  1  0
 13 16  1  6
 13 17  1  0
 13 18  1  0
 15 19  1  0
 15 20  2  0
 18 21  2  0
 18 22  1  0
 21 23  1  0
 22 24  2  0
 23 25  2  0
 24 25  1  0
M  END
