mac-x0282-mac-x0394
     RDKit          3D

 22 24  0  0  0  0  0  0  0  0999 V2000
    0.9900   18.2920   -5.0330 Cl  0  0  0  0  0  0  0  0  0  0  0  0
    0.2070   16.7840   -5.0230 C   0  0  0  0  0  0  0  0  0  0  0  0
   -1.1700   16.7530   -5.1830 C   0  0  0  0  0  0  0  0  0  0  0  0
    0.9460   15.6110   -4.8590 C   0  0  0  0  0  0  0  0  0  0  0  0
    0.2860   14.3790   -4.8600 C   0  0  0  0  0  0  0  0  0  0  0  0
   -1.8140   15.5310   -5.1810 C   0  0  0  0  0  0  0  0  0  0  0  0
   -3.5130   15.4530   -5.3880 Cl  0  0  0  0  0  0  0  0  0  0  0  0
    1.0140   13.0790   -4.6800 C   0  0  0  0  0  0  0  0  0  0  0  0
   -1.1000   14.3520   -5.0220 C   0  0  0  0  0  0  0  0  0  0  0  0
    0.9220   12.7980   -3.2250 C   0  0  0  0  0  0  0  0  0  0  0  0
    0.7440   11.5150   -2.8300 O   0  0  0  0  0  0  0  0  0  0  0  0
    1.0040   13.8280   -2.4750 N   0  0  0  0  0  0  0  0  0  0  0  0
    0.9320   13.6730   -1.0620 C   0  0  0  0  0  0  0  0  0  0  0  0
   -0.3290   14.1300   -0.4310 C   0  0  0  0  0  0  0  0  0  0  0  0
   -1.4000   14.5090   -1.2270 C   0  0  0  0  0  0  0  0  0  0  0  0
   -0.4660   14.1690    0.9610 C   0  0  0  0  0  0  0  0  0  0  0  0
   -2.5640   14.8960   -0.5790 C   0  0  0  0  0  0  0  0  0  0  0  0
   -1.5710   14.5380    1.6460 N   0  0  0  0  0  0  0  0  0  0  0  0
   -3.8370   15.3320   -1.0050 C   0  0  0  0  0  0  0  0  0  0  0  0
   -2.5690   14.8820    0.8110 C   0  0  0  0  0  0  0  0  0  0  0  0
   -4.5810   15.5610    0.1210 C   0  0  0  0  0  0  0  0  0  0  0  0
   -3.8030   15.2850    1.2140 N   0  0  0  0  0  0  0  0  0  0  0  0
  1  2  1  0
  2  3  2  0
  2  4  1  0
  4  5  2  0
  3  6  1  0
  6  7  1  0
  5  8  1  0
  5  9  1  0
  6  9  2  0
  8 10  1  0
 10 11  1  0
 10 12  2  3
 12 13  1  0
 13 14  1  0
 14 15  2  0
 14 16  1  0
 15 17  1  0
 16 18  2  0
 17 19  1  0
 17 20  2  0
 18 20  1  0
 19 21  2  0
 20 22  1  0
 21 22  1  0
M  END
