mac-x0509-mac-x0255
     RDKit          3D

 25 28  0  0  0  0  0  0  0  0999 V2000
   -2.9560    7.8430   -6.4240 O   0  0  0  0  0  0  0  0  0  0  0  0
   -2.0600    8.5800   -6.7960 C   0  0  0  0  0  0  0  0  0  0  0  0
   -2.1520    9.7640   -7.7530 C   0  0  0  0  0  0  0  0  0  0  0  0
   -0.7410    8.5700   -6.4500 N   0  0  0  0  0  0  0  0  0  0  0  0
   -0.4640    9.1230   -5.1260 C   0  0  0  0  0  0  0  0  0  0  0  0
   -0.8700    9.5460   -8.4860 C   0  0  0  0  0  0  0  0  0  0  0  0
   -0.0360    8.7930   -7.6650 C   0  0  0  0  0  0  0  0  0  0  0  0
   -0.3230   10.6640   -4.9060 C   0  0  0  0  0  0  0  0  0  0  0  0
   -0.4840    9.9620   -9.7500 C   0  0  0  0  0  0  0  0  0  0  0  0
    1.2140    8.4080   -8.0970 C   0  0  0  0  0  0  0  0  0  0  0  0
   -0.2330   11.0120   -3.4460 N   0  0  0  0  0  0  0  0  0  0  0  0
    0.7830    9.5870  -10.1960 C   0  0  0  0  0  0  0  0  0  0  0  0
    1.6220    8.8130   -9.3800 C   0  0  0  0  0  0  0  0  0  0  0  0
    0.5190   11.9760   -2.9990 C   0  0  0  0  0  0  0  0  0  0  0  0
    0.6030   12.2990   -1.6700 O   0  0  0  0  0  0  0  0  0  0  0  0
    1.3600   12.8250   -3.9350 C   0  0  0  0  0  0  0  0  0  0  0  0
    0.6510   14.0900   -4.3370 C   0  0  0  0  0  0  0  0  0  0  0  0
    1.2150   15.3210   -4.5620 C   0  0  0  0  0  0  0  0  0  0  0  0
   -1.0410   14.1310   -4.5760 S   0  0  0  0  0  0  0  0  0  0  0  0
    0.2650   16.3240   -4.9420 C   0  0  0  0  0  0  0  0  0  0  0  0
   -1.0310   15.8020   -4.9890 C   0  0  0  0  0  0  0  0  0  0  0  0
    0.4530   17.6830   -5.2580 C   0  0  0  0  0  0  0  0  0  0  0  0
   -2.1350   16.6050   -5.3420 C   0  0  0  0  0  0  0  0  0  0  0  0
   -0.6350   18.4770   -5.6120 C   0  0  0  0  0  0  0  0  0  0  0  0
   -1.9110   17.9450   -5.6540 C   0  0  0  0  0  0  0  0  0  0  0  0
  1  2  2  0
  2  3  1  0
  2  4  1  0
  4  5  1  0
  3  6  1  0
  4  7  1  0
  6  7  2  0
  5  8  1  0
  6  9  1  0
  7 10  1  0
  8 11  1  0
  9 12  2  0
 10 13  2  0
 12 13  1  0
 11 14  2  3
 14 15  1  0
 14 16  1  0
 16 17  1  0
 17 18  2  0
 17 19  1  0
 18 20  1  0
 19 21  1  0
 20 21  2  0
 20 22  1  0
 21 23  1  0
 22 24  2  0
 23 25  2  0
 24 25  1  0
M  END
