mac-x0555-diamond-x0969_0_A
     RDKit          3D

 11 12  0  0  0  0  0  0  0  0999 V2000
   -7.4770   14.3140    2.8920 N   0  0  0  0  0  0  0  0  0  0  0  0
   -6.9620   14.5370    1.6170 C   0  0  0  0  0  0  0  0  0  0  0  0
   -7.7610   14.6120    0.4830 C   0  0  0  0  0  0  0  0  0  0  0  0
   -5.5930   14.6960    1.4300 C   0  0  0  0  0  0  0  0  0  0  0  0
   -5.0720   14.9230    0.1500 C   0  0  0  0  0  0  0  0  0  0  0  0
   -7.3020   14.8340   -0.7700 N   0  0  0  0  0  0  0  0  0  0  0  0
   -5.9770   14.9830   -0.9310 C   0  0  0  0  0  0  0  0  0  0  0  0
   -3.6980   15.0810   -0.0670 C   0  0  0  0  0  0  0  0  0  0  0  0
   -5.4680   15.2090   -2.1980 C   0  0  0  0  0  0  0  0  0  0  0  0
   -3.2180   15.2950   -1.3530 C   0  0  0  0  0  0  0  0  0  0  0  0
   -4.1000   15.3630   -2.4200 C   0  0  0  0  0  0  0  0  0  0  0  0
  1  2  1  0
  2  3  2  0
  2  4  1  0
  4  5  2  0
  3  6  1  0
  5  7  1  0
  6  7  2  0
  5  8  1  0
  7  9  1  0
  8 10  2  0
  9 11  2  0
 10 11  1  0
M  END
