mac-x0565-mac-x0436
     RDKit          3D

 28 31  0  0  0  0  0  0  0  0999 V2000
   -5.5210   15.3330    0.8990 O   0  0  0  0  0  0  0  0  0  0  0  0
   -6.0670   15.2320   -0.3310 C   0  0  0  0  0  0  0  0  0  0  0  0
   -7.2660   15.2840   -0.5510 O   0  0  0  0  0  0  0  0  0  0  0  0
   -5.0650   15.0160   -1.3860 C   0  0  0  0  0  0  0  0  0  0  0  0
   -3.7270   14.8960   -1.0010 C   0  0  0  0  0  0  0  0  0  0  0  0
   -5.4470   14.9200   -2.7350 C   0  0  0  0  0  0  0  0  0  0  0  0
   -2.8140   14.6490   -2.0000 C   0  0  0  0  0  0  0  0  0  0  0  0
   -4.4910   14.6680   -3.7180 C   0  0  0  0  0  0  0  0  0  0  0  0
   -3.1750   14.5190   -3.3270 C   0  0  0  0  0  0  0  0  0  0  0  0
   -1.4730   14.4900   -1.8250 O   0  0  0  0  0  0  0  0  0  0  0  0
   -2.0810   14.1930   -4.1580 N   0  0  0  0  0  0  0  0  0  0  0  0
   -1.0030   14.5670   -3.1960 C   0  0  0  0  0  0  0  0  0  0  0  0
   -2.3630   12.8310   -4.3660 N   0  0  0  0  0  0  0  0  0  0  0  0
   -1.6620   11.8920   -4.9730 C   0  0  0  0  0  0  0  0  0  0  0  0
   -0.2850   12.1300   -5.6120 C   0  0  0  0  0  0  0  0  0  0  0  0
   -2.1380   10.5980   -5.0830 N   0  0  0  0  0  0  0  0  0  0  0  0
    0.5300   13.3440   -5.2240 C   0  0  0  0  0  0  0  0  0  0  0  0
   -1.7240    9.7840   -6.1440 C   0  0  0  0  0  0  0  0  0  0  0  0
    0.2030   11.2800   -6.4870 N   0  0  0  0  0  0  0  0  0  0  0  0
    1.7310   13.0140   -4.3320 C   0  0  0  0  0  0  0  0  0  0  0  0
   -0.5550   10.1360   -6.8370 C   0  0  0  0  0  0  0  0  0  0  0  0
   -2.4450    8.6440   -6.5150 C   0  0  0  0  0  0  0  0  0  0  0  0
    1.3560   12.4210   -2.9850 C   0  0  0  0  0  0  0  0  0  0  0  0
   -0.1180    9.3380   -7.8990 C   0  0  0  0  0  0  0  0  0  0  0  0
   -2.0010    7.8530   -7.5780 C   0  0  0  0  0  0  0  0  0  0  0  0
    0.7680   11.2090   -3.0220 O   0  0  0  0  0  0  0  0  0  0  0  0
    1.5720   12.9830   -1.9260 O   0  0  0  0  0  0  0  0  0  0  0  0
   -0.8390    8.2000   -8.2690 C   0  0  0  0  0  0  0  0  0  0  0  0
  1  2  1  0
  2  3  2  0
  2  4  1  0
  4  5  2  0
  4  6  1  0
  5  7  1  0
  6  8  2  0
  7  9  2  0
  8  9  1  0
  7 10  1  0
  9 11  1  0
 10 12  1  0
 11 12  1  0
 11 13  1  0
 13 14  2  3
 14 15  1  0
 14 16  1  0
 15 17  1  0
 16 18  1  0
 15 19  2  0
 17 20  1  0
 18 21  2  0
 19 21  1  0
 18 22  1  0
 20 23  1  0
 21 24  1  0
 22 25  2  0
 23 26  1  0
 23 27  2  0
 24 28  2  0
 25 28  1  0
M  END
