mac-x0346-mac-x0404
     RDKit          3D

 27 29  0  0  0  0  0  0  0  0999 V2000
   -7.4800   14.6960    1.2830 O   0  0  0  0  0  0  0  0  0  0  0  0
   -7.5870   14.3740   -0.0890 N   0  0  0  0  0  0  0  0  0  0  0  0
   -6.6600   14.8990   -0.9700 C   0  0  0  0  0  0  0  0  0  0  0  0
   -7.0250   15.2910   -2.0700 O   0  0  0  0  0  0  0  0  0  0  0  0
   -5.2110   14.9590   -0.5840 C   0  0  0  0  0  0  0  0  0  0  0  0
   -4.1320   14.8370   -1.5010 C   0  0  0  0  0  0  0  0  0  0  0  0
   -4.9300   15.1440    0.7860 C   0  0  0  0  0  0  0  0  0  0  0  0
   -4.3760   14.6320   -2.8750 O   0  0  0  0  0  0  0  0  0  0  0  0
   -2.8180   14.9070   -1.0050 C   0  0  0  0  0  0  0  0  0  0  0  0
   -3.6230   15.2070    1.2520 C   0  0  0  0  0  0  0  0  0  0  0  0
   -3.7420   15.4620   -3.9080 C   0  0  0  0  0  0  0  0  0  0  0  0
   -2.5710   15.0890    0.3640 C   0  0  0  0  0  0  0  0  0  0  0  0
   -2.3160   15.1460   -4.2500 C   0  0  0  0  0  0  0  0  0  0  0  0
   -1.3670   16.1360   -4.7130 C   0  0  0  0  0  0  0  0  0  0  0  0
   -1.9310   13.8270   -4.0800 C   0  0  0  0  0  0  0  0  0  0  0  0
   -0.0410   15.7180   -4.9360 C   0  0  0  0  0  0  0  0  0  0  0  0
   -0.6390   13.4370   -4.3170 C   0  0  0  0  0  0  0  0  0  0  0  0
   -1.6370   17.5070   -4.9590 C   0  0  0  0  0  0  0  0  0  0  0  0
    0.2920   14.3730   -4.7220 C   0  0  0  0  0  0  0  0  0  0  0  0
   -0.6580   18.4080   -5.3870 C   0  0  0  0  0  0  0  0  0  0  0  0
    0.9270   16.6360   -5.3600 C   0  0  0  0  0  0  0  0  0  0  0  0
    1.5760   13.9590   -4.9140 O   0  0  0  0  0  0  0  0  0  0  0  0
    0.6340   17.9730   -5.5850 C   0  0  0  0  0  0  0  0  0  0  0  0
    1.7880   12.6190   -4.4830 C   0  0  0  0  0  0  0  0  0  0  0  0
    1.1270   12.1570   -3.1670 C   0  0  0  0  0  0  0  0  0  0  0  0
    1.2710   13.0230   -2.1370 O   0  0  0  0  0  0  0  0  0  0  0  0
    0.5230   11.1040   -3.0140 O   0  0  0  0  0  0  0  0  0  0  0  0
  1  2  1  0
  2  3  1  0
  3  4  2  0
  3  5  1  0
  5  6  2  0
  5  7  1  0
  6  8  1  0
  6  9  1  0
  7 10  2  0
  8 11  1  0
  9 12  2  0
 10 12  1  0
 11 13  1  0
 13 14  1  0
 13 15  2  0
 14 16  2  0
 15 17  1  0
 14 18  1  0
 16 19  1  0
 17 19  2  0
 18 20  2  0
 16 21  1  0
 19 22  1  0
 20 23  1  0
 21 23  2  0
 22 24  1  0
 24 25  1  0
 25 26  1  0
 25 27  2  0
M  END
