mac-x0398-diamond-x0805_0_A
     RDKit          3D

 27 29  0  0  0  0  0  0  0  0999 V2000
   -6.7280   14.7330    2.2960 N   0  0  0  0  0  0  0  0  0  0  0  0
   -6.1400   14.8710    1.0420 C   0  0  0  0  0  0  0  0  0  0  0  0
   -4.7610   14.9520    0.9350 C   0  0  0  0  0  0  0  0  0  0  0  0
   -6.9180   14.9310   -0.1270 C   0  0  0  0  0  0  0  0  0  0  0  0
   -6.3220   15.0700   -1.3870 C   0  0  0  0  0  0  0  0  0  0  0  0
   -4.1840   15.0830   -0.3180 C   0  0  0  0  0  0  0  0  0  0  0  0
   -7.1300   15.1090   -2.5100 O   0  0  0  0  0  0  0  0  0  0  0  0
   -4.9370   15.1490   -1.5100 C   0  0  0  0  0  0  0  0  0  0  0  0
   -2.8520   15.1240   -0.4220 O   0  0  0  0  0  0  0  0  0  0  0  0
   -4.2650   15.2780   -2.8560 C   0  0  0  0  0  0  0  0  0  0  0  0
   -2.6710   14.2070   -1.3960 C   0  0  0  0  0  0  0  0  0  0  0  0
   -4.7900   14.9810   -3.9150 O   0  0  0  0  0  0  0  0  0  0  0  0
   -3.0030   15.7460   -2.8520 O   0  0  0  0  0  0  0  0  0  0  0  0
   -3.5980   13.1720   -1.6060 C   0  0  0  0  0  0  0  0  0  0  0  0
   -1.5600   14.3220   -2.1920 C   0  0  0  0  0  0  0  0  0  0  0  0
   -3.4030   12.2610   -2.6250 C   0  0  0  0  0  0  0  0  0  0  0  0
   -1.3520   13.4070   -3.2210 C   0  0  0  0  0  0  0  0  0  0  0  0
   -2.2820   12.3760   -3.4360 C   0  0  0  0  0  0  0  0  0  0  0  0
   -0.1100   13.5750   -4.0440 C   0  0  2  0  0  0  0  0  0  0  0  0
    1.0630   13.1930   -3.1870 C   0  0  1  0  0  0  0  0  0  0  0  0
    0.1650   14.9640   -4.5940 C   0  0  0  0  0  0  0  0  0  0  0  0
    0.6640   12.0640   -2.2840 C   0  0  0  0  0  0  0  0  0  0  0  0
    2.2940   13.0120   -4.0090 C   0  0  0  0  0  0  0  0  0  0  0  0
    1.6300   15.3340   -4.3840 C   0  0  0  0  0  0  0  0  0  0  0  0
    0.6050   10.8410   -2.8680 O   0  0  0  0  0  0  0  0  0  0  0  0
    0.3890   12.2480   -1.1190 O   0  0  0  0  0  0  0  0  0  0  0  0
    2.5550   14.2470   -4.6350 O   0  0  0  0  0  0  0  0  0  0  0  0
  1  2  1  0
  2  3  2  0
  2  4  1  0
  4  5  2  0
  3  6  1  0
  5  7  1  0
  5  8  1  0
  6  8  2  0
  6  9  1  0
  8 10  1  0
  9 11  1  0
 10 12  2  0
 10 13  1  0
 11 14  2  0
 11 15  1  0
 14 16  1  0
 15 17  2  0
 16 18  2  0
 17 18  1  0
 19 17  1  1
 19 20  1  0
 19 21  1  0
 20 22  1  6
 20 23  1  0
 21 24  1  0
 22 25  1  0
 22 26  2  0
 23 27  1  0
 24 27  1  0
M  END
