mac-x0380-mac-x0360
     RDKit          3D

 25 27  0  0  0  0  0  0  0  0999 V2000
   -1.9060   15.4460   -2.6960 O   0  0  0  0  0  0  0  0  0  0  0  0
   -3.0100   14.6230   -2.4130 C   0  0  0  0  0  0  0  0  0  0  0  0
   -3.6400   14.2670   -3.6460 O   0  0  0  0  0  0  0  0  0  0  0  0
   -2.4940   13.2540   -1.2140 S   0  0  0  0  0  0  0  0  0  0  0  0
   -3.9610   14.8590   -1.2840 C   0  0  0  0  0  0  0  0  0  0  0  0
   -2.2850   13.9100    0.0610 O   0  0  0  0  0  0  0  0  0  0  0  0
   -1.4750   12.3870   -1.7250 O   0  0  0  0  0  0  0  0  0  0  0  0
   -5.3440   14.8930   -1.4230 C   0  0  0  0  0  0  0  0  0  0  0  0
   -3.3840   14.9800   -0.0090 C   0  0  0  0  0  0  0  0  0  0  0  0
   -4.0140   12.3310   -0.9640 C   0  0  0  0  0  0  0  0  0  0  0  0
   -6.1430   14.9960   -0.2880 C   0  0  0  0  0  0  0  0  0  0  0  0
   -4.1680   15.0800    1.1120 C   0  0  0  0  0  0  0  0  0  0  0  0
   -4.3830   11.4400   -1.9590 C   0  0  0  0  0  0  0  0  0  0  0  0
   -4.8210   12.4810    0.1930 C   0  0  0  0  0  0  0  0  0  0  0  0
   -5.5440   15.0640    0.9830 C   0  0  0  0  0  0  0  0  0  0  0  0
   -7.8990   15.0140   -0.5080 S   0  0  0  0  0  0  0  0  0  0  0  0
   -5.5380   10.6980   -1.8180 C   0  0  0  0  0  0  0  0  0  0  0  0
   -5.9890   11.7160    0.3080 C   0  0  0  0  0  0  0  0  0  0  0  0
   -7.0100   11.8360    1.6910 Cl  0  0  0  0  0  0  0  0  0  0  0  0
   -5.9660    9.5930   -3.0570 Cl  0  0  0  0  0  0  0  0  0  0  0  0
   -6.2710   15.1070    2.1730 N   0  0  0  0  0  0  0  0  0  0  0  0
   -8.3640   14.2960    1.0780 C   0  0  0  0  0  0  0  0  0  0  0  0
   -6.3510   10.8280   -0.6950 C   0  0  0  0  0  0  0  0  0  0  0  0
   -7.6100   14.8390    2.2730 C   0  0  0  0  0  0  0  0  0  0  0  0
   -8.1860   15.0510    3.3410 O   0  0  0  0  0  0  0  0  0  0  0  0
  2  1  1  0
  2  3  1  0
  2  4  1  0
  2  5  1  0
  4  6  2  0
  4  7  2  0
  5  8  2  0
  5  9  1  0
  4 10  1  0
  8 11  1  0
  9 12  2  0
 10 13  2  0
 10 14  1  0
 11 15  2  0
 12 15  1  0
 11 16  1  0
 13 17  1  0
 14 18  2  0
 18 19  1  0
 17 20  1  0
 15 21  1  0
 16 22  1  0
 17 23  2  0
 18 23  1  0
 21 24  1  0
 22 24  1  0
 24 25  2  0
M  END
