mac-x0224-diamond-x0626_0_A
     RDKit          3D

 22 23  0  0  0  0  0  0  0  0999 V2000
   -4.8020   14.6970    1.4010 C   0  0  1  0  0  0  0  0  0  0  0  0
   -4.1050   16.1870    0.7270 S   0  0  0  0  0  0  0  0  0  0  0  0
   -3.3870   15.5320   -0.8100 C   0  0  0  0  0  0  0  0  0  0  0  0
   -6.1430   14.3790    0.7630 C   0  0  0  0  0  0  0  0  0  0  0  0
   -3.5560   14.1690    0.9230 C   0  0  0  0  0  0  0  0  0  0  0  0
   -6.2410   14.3100   -0.4690 O   0  0  0  0  0  0  0  0  0  0  0  0
   -7.3620   14.1840    1.6410 C   0  0  0  0  0  0  0  0  0  0  0  0
   -2.4210   14.4470    1.5300 N   0  0  0  0  0  0  0  0  0  0  0  0
   -3.4960   13.2440   -0.5200 S   0  0  0  0  0  0  0  0  0  0  0  0
   -8.6370   14.6290    0.9430 C   0  0  0  0  0  0  0  0  0  0  0  0
   -2.0400   15.0510   -0.9420 C   0  0  0  0  0  0  0  0  0  0  0  0
   -4.1890   15.5160   -1.9410 C   0  0  0  0  0  0  0  0  0  0  0  0
   -1.7950   13.2460   -0.3460 C   0  0  0  0  0  0  0  0  0  0  0  0
   -1.4160   13.9220    0.7950 C   0  0  0  0  0  0  0  0  0  0  0  0
   -0.0570   14.1190    1.2640 C   0  0  0  0  0  0  0  0  0  0  0  0
   -1.5420   14.6050   -2.1890 C   0  0  0  0  0  0  0  0  0  0  0  0
   -3.7000   15.0640   -3.1690 C   0  0  0  0  0  0  0  0  0  0  0  0
   -0.1310   14.1470   -2.2840 C   0  0  0  0  0  0  0  0  0  0  0  0
   -2.3830   14.6180   -3.2970 C   0  0  0  0  0  0  0  0  0  0  0  0
   -1.9350   14.2010   -4.5170 O   0  0  0  0  0  0  0  0  0  0  0  0
    0.6240   13.9160   -1.3610 O   0  0  0  0  0  0  0  0  0  0  0  0
    0.2720   14.0030   -3.5570 O   0  0  0  0  0  0  0  0  0  0  0  0
  1  2  1  6
  2  3  1  0
  1  4  1  0
  1  5  1  0
  4  6  2  0
  4  7  1  0
  5  8  2  0
  5  9  1  0
  7 10  1  0
  3 11  2  0
  3 12  1  0
  9 13  1  0
  8 14  1  0
 13 14  2  0
 14 15  1  0
 11 16  1  0
 12 17  2  0
 16 18  1  0
 16 19  2  0
 17 19  1  0
 19 20  1  0
 18 21  2  0
 18 22  1  0
M  END
