mac-x0178-diamond-x0681_0_A
     RDKit          3D

 25 27  0  0  0  0  0  0  0  0999 V2000
   -0.3440   18.1350   -6.4910 N   0  0  0  0  0  0  0  0  0  0  0  0
   -1.6990   17.5050   -5.7330 S   0  0  0  0  0  0  0  0  0  0  0  0
   -2.6340   17.0760   -6.7420 O   0  0  0  0  0  0  0  0  0  0  0  0
   -2.0390   18.5050   -4.7500 O   0  0  0  0  0  0  0  0  0  0  0  0
   -1.0280   16.1060   -4.8670 C   0  0  0  0  0  0  0  0  0  0  0  0
    0.2470   15.6050   -5.1130 C   0  0  0  0  0  0  0  0  0  0  0  0
   -1.8150   15.5210   -3.8990 C   0  0  0  0  0  0  0  0  0  0  0  0
    0.7090   14.5110   -4.3740 C   0  0  0  0  0  0  0  0  0  0  0  0
   -1.3730   14.4470   -3.1310 C   0  0  0  0  0  0  0  0  0  0  0  0
   -2.2640   14.0330   -2.1330 N   0  0  0  0  0  0  0  0  0  0  0  0
   -0.0920   13.9210   -3.3780 C   0  0  0  0  0  0  0  0  0  0  0  0
    0.5000   12.7840   -2.6390 C   0  0  0  0  0  0  0  0  0  0  0  0
   -3.3140   14.7570   -1.8180 C   0  0  0  0  0  0  0  0  0  0  0  0
    1.3200   12.9150   -1.7560 O   0  0  0  0  0  0  0  0  0  0  0  0
    0.0600   11.5780   -3.0210 O   0  0  0  0  0  0  0  0  0  0  0  0
   -3.5430   15.8230   -2.6190 N   0  0  0  0  0  0  0  0  0  0  0  0
   -4.3630   14.7280   -0.7210 C   0  0  1  0  0  0  0  0  0  0  0  0
   -5.0830   13.4410   -0.5400 C   0  0  0  0  0  0  0  0  0  0  0  0
   -3.9900   15.5170    0.5420 C   0  0  0  0  0  0  0  0  0  0  0  0
   -5.7310   13.1960    0.6280 N   0  0  0  0  0  0  0  0  0  0  0  0
   -4.4280   14.8720    1.8470 C   0  0  0  0  0  0  0  0  0  0  0  0
   -5.2220   12.4390   -1.3810 N   0  0  0  0  0  0  0  0  0  0  0  0
   -5.7470   14.1130    1.7360 C   0  0  0  0  0  0  0  0  0  0  0  0
   -6.3250   11.9830    0.5430 C   0  0  0  0  0  0  0  0  0  0  0  0
   -5.9980   11.5280   -0.7140 C   0  0  0  0  0  0  0  0  0  0  0  0
  2  1  1  0
  2  3  2  0
  2  4  2  0
  2  5  1  0
  5  6  2  0
  5  7  1  0
  6  8  1  0
  7  9  2  0
  9 10  1  0
  8 11  2  0
  9 11  1  0
 11 12  1  0
 10 13  2  3
 12 14  2  0
 12 15  1  0
 13 16  1  0
 17 13  1  1
 17 18  1  0
 17 19  1  0
 18 20  1  0
 19 21  1  0
 18 22  2  0
 20 23  1  0
 21 23  1  0
 20 24  1  0
 22 25  1  0
 24 25  2  0
M  END
