mac-x0226-mac-x0139
     RDKit          3D

 28 31  0  0  0  0  0  0  0  0999 V2000
    1.2490   12.2570   -2.0760 N   0  0  0  0  0  0  0  0  0  0  0  0
    0.4630   11.4050   -2.7750 C   0  0  0  0  0  0  0  0  0  0  0  0
   -0.2380   10.5330   -2.2640 O   0  0  0  0  0  0  0  0  0  0  0  0
    1.1870   13.4880   -2.4030 C   0  0  0  0  0  0  0  0  0  0  0  0
    0.2970   14.0040   -3.4860 C   0  0  0  0  0  0  0  0  0  0  0  0
    0.6010   11.5770   -4.2110 C   0  0  0  0  0  0  0  0  0  0  0  0
    0.0230   15.4640   -3.1900 C   0  0  0  0  0  0  0  0  0  0  0  0
    1.3970   12.4630   -4.9780 C   0  0  0  0  0  0  0  0  0  0  0  0
   -0.0560   10.8270   -5.1550 C   0  0  0  0  0  0  0  0  0  0  0  0
   -1.2660   15.6180   -2.4810 N   0  0  0  0  0  0  0  0  0  0  0  0
    1.2540   12.2730   -6.2910 N   0  0  0  0  0  0  0  0  0  0  0  0
    0.3600   11.2510   -6.3880 N   0  0  0  0  0  0  0  0  0  0  0  0
   -2.4100   15.2710   -3.3270 C   0  0  0  0  0  0  0  0  0  0  0  0
   -0.0430   10.7220   -7.6380 C   0  0  0  0  0  0  0  0  0  0  0  0
   -1.3420   15.3880   -1.0850 C   0  0  0  0  0  0  0  0  0  0  0  0
   -1.2140    9.9810   -7.7730 C   0  0  0  0  0  0  0  0  0  0  0  0
    0.7510   10.9350   -8.7590 C   0  0  0  0  0  0  0  0  0  0  0  0
   -2.5510   15.3610   -0.4900 C   0  0  0  0  0  0  0  0  0  0  0  0
   -0.1830   15.1970   -0.3310 N   0  0  0  0  0  0  0  0  0  0  0  0
   -1.5680    9.4680   -9.0240 C   0  0  0  0  0  0  0  0  0  0  0  0
    0.4070   10.4310  -10.0020 C   0  0  0  0  0  0  0  0  0  0  0  0
   -2.6210   15.1140    0.9680 C   0  0  0  0  0  0  0  0  0  0  0  0
   -0.3060   14.9690    0.9460 C   0  0  0  0  0  0  0  0  0  0  0  0
   -3.9100   15.5160   -0.8690 C   0  0  0  0  0  0  0  0  0  0  0  0
   -0.7590    9.6930  -10.1380 C   0  0  0  0  0  0  0  0  0  0  0  0
   -1.4750   14.8840    1.6270 N   0  0  0  0  0  0  0  0  0  0  0  0
   -3.8400   15.1610    1.4000 N   0  0  0  0  0  0  0  0  0  0  0  0
   -4.6000   15.3960    0.2690 C   0  0  0  0  0  0  0  0  0  0  0  0
  1  2  1  0
  2  3  2  0
  1  4  2  3
  4  5  1  0
  2  6  1  0
  5  7  1  0
  6  8  1  0
  6  9  2  0
  7 10  1  0
  8 11  2  0
  9 12  1  0
 11 12  1  0
 10 13  1  0
 12 14  1  0
 10 15  1  0
 14 16  2  0
 14 17  1  0
 15 18  2  0
 15 19  1  0
 16 20  1  0
 17 21  2  0
 18 22  1  0
 19 23  2  0
 18 24  1  0
 20 25  2  0
 21 25  1  0
 22 26  1  0
 23 26  1  0
 22 27  2  0
 24 28  2  0
 27 28  1  0
M  END
