mac-x0437-diamond-x0742_0_A
     RDKit          3D

 32 36  0  0  0  0  0  0  0  0999 V2000
    3.0820   12.2760   -3.0270 O   0  0  0  0  0  0  0  0  0  0  0  0
    1.7810   12.6950   -3.2870 C   0  0  0  0  0  0  0  0  0  0  0  0
    0.9540   11.5890   -2.9490 O   0  0  0  0  0  0  0  0  0  0  0  0
    1.6720   13.0150   -4.7890 C   0  0  0  0  0  0  0  0  0  0  0  0
    1.5950   13.8600   -2.3140 C   0  0  0  0  0  0  0  0  0  0  0  0
    0.2720   13.2190   -5.3720 C   0  0  0  0  0  0  0  0  0  0  0  0
    0.1760   13.9890   -1.8100 C   0  0  0  0  0  0  0  0  0  0  0  0
   -0.5160   12.0260   -5.5960 N   0  0  0  0  0  0  0  0  0  0  0  0
    0.1150   14.2390   -0.3360 C   0  0  0  0  0  0  0  0  0  0  0  0
   -1.6480   11.6930   -4.9130 C   0  0  0  0  0  0  0  0  0  0  0  0
   -0.2690   11.0380   -6.5190 C   0  0  0  0  0  0  0  0  0  0  0  0
   -0.2370   14.4760    1.0330 C   0  0  0  0  0  0  0  0  0  0  0  0
   -1.2100   14.1650   -0.8790 C   0  0  0  0  0  0  0  0  0  0  0  0
   -2.1520   10.5530   -5.3300 N   0  0  0  0  0  0  0  0  0  0  0  0
   -1.3080   10.1310   -6.3270 C   0  0  0  0  0  0  0  0  0  0  0  0
    0.7290   10.8480   -7.4760 C   0  0  0  0  0  0  0  0  0  0  0  0
   -1.3860   14.6120    1.7060 N   0  0  0  0  0  0  0  0  0  0  0  0
   -2.4460   14.2890   -0.2800 C   0  0  0  0  0  0  0  0  0  0  0  0
   -1.3700    8.9730   -7.1150 C   0  0  0  0  0  0  0  0  0  0  0  0
    0.6530    9.6900   -8.2550 C   0  0  0  0  0  0  0  0  0  0  0  0
   -3.7480   14.1770   -1.0310 C   0  0  1  0  0  0  0  0  0  0  0  0
   -2.4820   14.5220    1.0250 C   0  0  0  0  0  0  0  0  0  0  0  0
   -0.3750    8.7650   -8.0820 C   0  0  0  0  0  0  0  0  0  0  0  0
   -4.9800   13.6160   -0.2320 C   0  0  1  0  0  0  0  0  0  0  0  0
   -4.2570   15.3080   -1.9130 C   0  0  0  0  0  0  0  0  0  0  0  0
   -3.7650   14.6790    1.7090 C   0  0  0  0  0  0  0  0  0  0  0  0
   -5.5090   12.2140   -0.5740 C   0  0  0  0  0  0  0  0  0  0  0  0
   -4.7200   13.5700    1.2870 C   0  0  0  0  0  0  0  0  0  0  0  0
   -6.1420   14.5580   -0.5940 C   0  0  0  0  0  0  0  0  0  0  0  0
   -5.5070   15.8000   -1.1970 C   0  0  0  0  0  0  0  0  0  0  0  0
   -5.0380   11.5850   -1.5300 O   0  0  0  0  0  0  0  0  0  0  0  0
   -6.6070   11.6070    0.2510 C   0  0  0  0  0  0  0  0  0  0  0  0
  2  1  1  0
  2  3  1  0
  2  4  1  0
  2  5  1  0
  4  6  1  0
  5  7  1  0
  6  8  1  0
  7  9  1  0
  8 10  1  0
  8 11  1  0
  9 12  2  0
  9 13  1  0
 10 14  2  0
 11 15  2  0
 14 15  1  0
 11 16  1  0
 12 17  1  0
 13 18  2  0
 15 19  1  0
 16 20  2  0
 18 21  1  0
 17 22  2  0
 18 22  1  0
 19 23  2  0
 20 23  1  0
 21 24  1  0
 21 25  1  1
 22 26  1  0
 24 27  1  6
 24 28  1  0
 26 28  1  0
 24 29  1  0
 25 30  1  0
 29 30  1  0
 27 31  2  0
 27 32  1  0
M  END
