mac-x0437-mac-x0404
     RDKit          3D

 24 27  0  0  0  0  0  0  0  0999 V2000
    1.3000   13.0050   -1.8480 O   0  0  0  0  0  0  0  0  0  0  0  0
    1.2000   12.2770   -2.9690 C   0  0  0  0  0  0  0  0  0  0  0  0
    0.7680   11.1390   -2.9190 O   0  0  0  0  0  0  0  0  0  0  0  0
    1.6540   13.0150   -4.1920 C   0  0  0  0  0  0  0  0  0  0  0  0
    0.5500   13.1080   -5.2540 C   0  0  1  0  0  0  0  0  0  0  0  0
   -0.2500   11.8710   -5.4450 N   0  0  0  0  0  0  0  0  0  0  0  0
   -0.4570   14.2610   -5.2200 C   0  0  0  0  0  0  0  0  0  0  0  0
   -1.2880   11.4180   -4.6660 C   0  0  0  0  0  0  0  0  0  0  0  0
   -0.0990   10.9470   -6.4650 C   0  0  0  0  0  0  0  0  0  0  0  0
   -0.3100   15.6950   -5.2780 C   0  0  0  0  0  0  0  0  0  0  0  0
   -1.7550   13.7190   -5.1420 C   0  0  0  0  0  0  0  0  0  0  0  0
   -1.8040   10.2940   -5.1080 N   0  0  0  0  0  0  0  0  0  0  0  0
   -1.0790    9.9860   -6.2210 C   0  0  0  0  0  0  0  0  0  0  0  0
    0.7720   10.8540   -7.5520 C   0  0  0  0  0  0  0  0  0  0  0  0
   -1.5180   16.4550   -5.2740 C   0  0  0  0  0  0  0  0  0  0  0  0
   -2.8830   14.4880   -5.1260 C   0  0  0  0  0  0  0  0  0  0  0  0
    0.8810   16.4610   -5.3560 C   0  0  0  0  0  0  0  0  0  0  0  0
   -1.2080    8.8850   -7.0780 C   0  0  0  0  0  0  0  0  0  0  0  0
    0.6330    9.7490   -8.3980 C   0  0  0  0  0  0  0  0  0  0  0  0
   -2.7630   15.8430   -5.1960 C   0  0  0  0  0  0  0  0  0  0  0  0
   -1.5130   17.8350   -5.3590 C   0  0  0  0  0  0  0  0  0  0  0  0
    0.8630   17.8570   -5.4410 C   0  0  0  0  0  0  0  0  0  0  0  0
   -0.3390    8.7770   -8.1680 C   0  0  0  0  0  0  0  0  0  0  0  0
   -0.3390   18.5280   -5.4500 C   0  0  0  0  0  0  0  0  0  0  0  0
  1  2  1  0
  2  3  2  0
  2  4  1  0
  5  4  1  1
  5  6  1  0
  5  7  1  0
  6  8  1  0
  6  9  1  0
  7 10  1  0
  7 11  2  0
  8 12  2  0
  9 13  2  0
 12 13  1  0
  9 14  1  0
 10 15  2  0
 11 16  1  0
 10 17  1  0
 13 18  1  0
 14 19  2  0
 15 20  1  0
 16 20  2  0
 15 21  1  0
 17 22  2  0
 18 23  2  0
 19 23  1  0
 21 24  2  0
 22 24  1  0
M  END
