mac-x0328-mac-x0282
     RDKit          3D

 18 20  0  0  0  0  0  0  0  0999 V2000
   -2.1140   14.9070   -4.3050 O   0  0  0  0  0  0  0  0  0  0  0  0
   -2.4180   14.5870   -2.9520 C   0  0  0  0  0  0  0  0  0  0  0  0
   -3.8850   14.7640   -2.6220 C   0  0  0  0  0  0  0  0  0  0  0  0
   -4.3560   14.9080   -1.3350 C   0  0  0  0  0  0  0  0  0  0  0  0
   -4.8750   14.7830   -3.5990 C   0  0  0  0  0  0  0  0  0  0  0  0
   -5.6660   15.0710   -0.9700 C   0  0  0  0  0  0  0  0  0  0  0  0
   -6.2320   14.9440   -3.2400 C   0  0  0  0  0  0  0  0  0  0  0  0
   -3.6130   14.8920   -0.2280 C   0  0  0  0  0  0  0  0  0  0  0  0
   -6.6060   15.0910   -1.9160 C   0  0  0  0  0  0  0  0  0  0  0  0
   -4.3040   15.0350    0.9220 C   0  0  0  0  0  0  0  0  0  0  0  0
   -2.2620   14.7380   -0.0010 C   0  0  0  0  0  0  0  0  0  0  0  0
   -7.9120   15.2490   -1.5750 O   0  0  0  0  0  0  0  0  0  0  0  0
   -2.2020   14.7780    1.3580 C   0  0  0  0  0  0  0  0  0  0  0  0
   -3.4230   14.9590    1.8930 N   0  0  0  0  0  0  0  0  0  0  0  0
   -1.0750   14.5640   -0.7270 C   0  0  0  0  0  0  0  0  0  0  0  0
    0.0770   14.4490    0.0250 C   0  0  0  0  0  0  0  0  0  0  0  0
   -1.1590   14.6630    2.0830 N   0  0  0  0  0  0  0  0  0  0  0  0
   -0.0690   14.5090    1.4000 C   0  0  0  0  0  0  0  0  0  0  0  0
  1  2  1  0
  2  3  1  0
  3  4  2  0
  3  5  1  0
  4  6  1  0
  5  7  2  0
  4  8  1  0
  6  9  2  0
  7  9  1  0
  8 10  2  0
  8 11  1  0
  9 12  1  0
 11 13  2  0
 10 14  1  0
 13 14  1  0
 11 15  1  0
 15 16  2  0
 13 17  1  0
 16 18  1  0
 17 18  2  0
M  END
