mac-x0584-diamond-x0438_0_A
     RDKit          3D

 27 31  0  0  0  0  0  0  0  0999 V2000
   -8.3260   15.7730    3.9810 C   0  0  0  0  0  0  0  0  0  0  0  0
   -9.0850   15.1950    2.4750 S   0  0  0  0  0  0  0  0  0  0  0  0
  -10.2520   14.4350    2.8950 O   0  0  0  0  0  0  0  0  0  0  0  0
   -7.8830   14.0500    1.7940 C   0  0  0  0  0  0  0  0  0  0  0  0
   -9.2800   16.3220    1.5840 O   0  0  0  0  0  0  0  0  0  0  0  0
   -7.3160   14.4050    0.4140 C   0  0  2  0  0  0  0  0  0  0  0  0
   -6.7850   13.2800   -0.3020 N   0  0  0  0  0  0  0  0  0  0  0  0
   -6.1420   15.2610    0.4830 N   0  0  0  0  0  0  0  0  0  0  0  0
   -4.8620   14.6180    0.3250 C   0  0  2  0  0  0  0  0  0  0  0  0
   -5.4010   13.1830    0.2230 C   0  0  0  0  0  0  0  0  0  0  0  0
   -3.9240   14.8750    1.4090 N   0  0  0  0  0  0  0  0  0  0  0  0
   -4.0920   15.0140   -0.9840 C   0  0  0  0  0  0  0  0  0  0  0  0
   -2.6360   14.7940    0.8450 C   0  0  0  0  0  0  0  0  0  0  0  0
   -2.6760   14.8590   -0.5360 C   0  0  0  0  0  0  0  0  0  0  0  0
   -1.5310   14.6680    1.5670 N   0  0  0  0  0  0  0  0  0  0  0  0
   -1.4890   14.7780   -1.2250 C   0  0  0  0  0  0  0  0  0  0  0  0
   -1.4460   14.8230   -2.6240 N   0  0  0  0  0  0  0  0  0  0  0  0
   -0.3430   14.6560   -0.5270 N   0  0  0  0  0  0  0  0  0  0  0  0
   -0.4250   14.6120    0.8230 C   0  0  0  0  0  0  0  0  0  0  0  0
   -0.1930   15.0460   -3.3460 C   0  0  1  0  0  0  0  0  0  0  0  0
   -2.6350   15.0650   -3.4400 C   0  0  0  0  0  0  0  0  0  0  0  0
    0.5210   13.7240   -3.3970 C   0  0  0  0  0  0  0  0  0  0  0  0
   -0.6210   15.5920   -4.7210 C   0  0  0  0  0  0  0  0  0  0  0  0
   -2.0990   15.2270   -4.8660 C   0  0  0  0  0  0  0  0  0  0  0  0
    1.4640   13.3150   -4.5570 C   0  0  0  0  0  0  0  0  0  0  0  0
   -0.3510   12.5150   -3.7990 C   0  0  0  0  0  0  0  0  0  0  0  0
    0.9330   11.9010   -4.2890 C   0  0  0  0  0  0  0  0  0  0  0  0
  2  1  1  0
  2  3  2  0
  2  4  1  0
  2  5  2  0
  6  4  1  1
  6  7  1  0
  6  8  1  0
  9  8  1  0
  7 10  1  0
  9 10  1  6
  9 11  1  0
  9 12  1  0
 11 13  1  0
 12 14  1  0
 13 14  2  0
 13 15  1  0
 14 16  1  0
 16 17  1  0
 16 18  2  0
 15 19  2  0
 18 19  1  0
 17 20  1  0
 17 21  1  0
 20 22  1  6
 20 23  1  0
 21 24  1  0
 23 24  1  0
 22 25  1  0
 22 26  1  0
 25 27  1  0
 26 27  1  0
M  END
