mac-x0453-mac-x0348
     RDKit          3D

 25 27  0  0  0  0  0  0  0  0999 V2000
   -7.0180   14.2070    2.4290 N   0  0  0  0  0  0  0  0  0  0  0  0
   -6.1130   13.9690    1.3060 C   0  0  0  0  0  0  0  0  0  0  0  0
   -4.8660   14.8620    1.3710 C   0  0  0  0  0  0  0  0  0  0  0  0
   -4.0740   14.7380    0.1350 C   0  0  0  0  0  0  0  0  0  0  0  0
   -2.8280   14.1880   -0.0000 C   0  0  0  0  0  0  0  0  0  0  0  0
   -4.5510   15.1830   -1.0730 N   0  0  0  0  0  0  0  0  0  0  0  0
   -2.5380   14.2890   -1.3200 N   0  0  0  0  0  0  0  0  0  0  0  0
   -3.5990   14.9020   -1.9360 C   0  0  0  0  0  0  0  0  0  0  0  0
   -1.3230   13.8130   -1.9450 C   0  0  0  0  0  0  0  0  0  0  0  0
   -0.0690   14.6900   -1.9210 C   0  0  0  0  0  0  0  0  0  0  0  0
    0.6490   14.7720   -3.2910 C   0  0  1  0  0  0  0  0  0  0  0  0
    0.7980   13.4170   -3.9900 C   0  0  0  0  0  0  0  0  0  0  0  0
    0.0670   15.8050   -4.2320 C   0  0  0  0  0  0  0  0  0  0  0  0
    0.9050   12.2880   -3.0140 C   0  0  0  0  0  0  0  0  0  0  0  0
    0.7210   16.9030   -4.7190 C   0  0  0  0  0  0  0  0  0  0  0  0
   -1.2400   15.8440   -4.7900 C   0  0  0  0  0  0  0  0  0  0  0  0
    1.4240   12.3700   -1.9210 O   0  0  0  0  0  0  0  0  0  0  0  0
    0.3640   11.1350   -3.4310 O   0  0  0  0  0  0  0  0  0  0  0  0
   -0.1030   17.5920   -5.5450 N   0  0  0  0  0  0  0  0  0  0  0  0
   -1.3260   16.9760   -5.6030 C   0  0  0  0  0  0  0  0  0  0  0  0
   -2.3630   15.0070   -4.6740 C   0  0  0  0  0  0  0  0  0  0  0  0
    0.2870   18.7870   -6.2390 C   0  0  0  0  0  0  0  0  0  0  0  0
   -3.5210   15.3170   -5.3560 C   0  0  0  0  0  0  0  0  0  0  0  0
   -2.4930   17.3020   -6.2950 C   0  0  0  0  0  0  0  0  0  0  0  0
   -3.5800   16.4370   -6.1430 C   0  0  0  0  0  0  0  0  0  0  0  0
  1  2  1  0
  2  3  1  0
  3  4  1  0
  4  5  2  0
  4  6  1  0
  5  7  1  0
  6  8  2  0
  7  8  1  0
  7  9  1  0
  9 10  1  0
 11 10  1  1
 11 12  1  0
 11 13  1  0
 12 14  1  0
 13 15  2  0
 13 16  1  0
 14 17  2  0
 14 18  1  0
 15 19  1  0
 16 20  2  0
 19 20  1  0
 16 21  1  0
 19 22  1  0
 21 23  2  0
 20 24  1  0
 23 25  1  0
 24 25  2  0
M  END
