mac-x0131-diamond-x0104_0_A
     RDKit          3D

 32 36  0  0  0  0  0  0  0  0999 V2000
   -3.9360   14.8310   -4.0110 C   0  0  0  0  0  0  0  0  0  0  0  0
   -3.2140   14.8510   -2.7100 C   0  0  0  0  0  0  0  0  0  0  0  0
   -3.6580   14.8520   -1.3860 C   0  0  0  0  0  0  0  0  0  0  0  0
   -1.8190   14.8470   -2.6220 N   0  0  0  0  0  0  0  0  0  0  0  0
   -0.8490   14.8090   -3.7020 C   0  0  0  0  0  0  0  0  0  0  0  0
   -2.5270   14.8750   -0.5220 C   0  0  0  0  0  0  0  0  0  0  0  0
   -1.4120   14.8730   -1.3110 C   0  0  0  0  0  0  0  0  0  0  0  0
   -4.9180   14.8100   -0.7200 C   0  0  0  0  0  0  0  0  0  0  0  0
   -2.3100   14.8940    0.8900 C   0  0  0  0  0  0  0  0  0  0  0  0
   -0.1490   14.8940   -0.8710 N   0  0  0  0  0  0  0  0  0  0  0  0
   -0.5610   13.3580   -3.8350 C   0  0  0  0  0  0  0  0  0  0  0  0
   -4.5150   14.8690    0.5210 N   0  0  0  0  0  0  0  0  0  0  0  0
   -6.2620   14.7050   -1.0840 C   0  0  0  0  0  0  0  0  0  0  0  0
   -3.2790   14.9020    1.8740 N   0  0  0  0  0  0  0  0  0  0  0  0
   -1.0780   14.9100    1.3650 N   0  0  0  0  0  0  0  0  0  0  0  0
   -0.0900   14.9200    0.4710 C   0  0  0  0  0  0  0  0  0  0  0  0
    0.4210   12.5100   -3.3520 C   0  0  0  0  0  0  0  0  0  0  0  0
   -1.4520   12.6470   -4.5820 O   0  0  0  0  0  0  0  0  0  0  0  0
   -5.3840   14.7990    1.4760 C   0  0  0  0  0  0  0  0  0  0  0  0
   -7.1970   14.6250   -0.0100 C   0  0  0  0  0  0  0  0  0  0  0  0
   -1.0480   11.3540   -4.5710 C   0  0  0  0  0  0  0  0  0  0  0  0
    0.0870   11.2190   -3.8290 C   0  0  0  0  0  0  0  0  0  0  0  0
   -6.7160   14.6600    1.3170 C   0  0  0  0  0  0  0  0  0  0  0  0
   -7.3480   14.5710    2.5620 N   0  0  0  0  0  0  0  0  0  0  0  0
   -8.3760   15.2960    3.1080 C   0  0  0  0  0  0  0  0  0  0  0  0
   -8.2130   15.3310    4.4840 N   0  0  0  0  0  0  0  0  0  0  0  0
   -9.2810   15.8150    2.4750 O   0  0  0  0  0  0  0  0  0  0  0  0
   -9.2580   15.2220    5.3690 C   0  0  0  0  0  0  0  0  0  0  0  0
   -9.3310   15.2610    6.7390 C   0  0  0  0  0  0  0  0  0  0  0  0
  -10.7750   14.9930    4.6330 S   0  0  0  0  0  0  0  0  0  0  0  0
  -11.5630   14.9420    6.1540 C   0  0  0  0  0  0  0  0  0  0  0  0
  -10.6750   15.0970    7.1980 C   0  0  0  0  0  0  0  0  0  0  0  0
  1  2  1  0
  2  3  2  0
  2  4  1  0
  4  5  1  0
  3  6  1  0
  4  7  1  0
  6  7  2  0
  3  8  1  0
  6  9  1  0
  7 10  1  0
  5 11  1  0
  8 12  2  0
  8 13  1  0
  9 14  1  0
  9 15  2  0
 10 16  2  0
 15 16  1  0
 11 17  2  0
 11 18  1  0
 12 19  1  0
 13 20  2  0
 18 21  1  0
 17 22  1  0
 21 22  2  0
 19 23  2  0
 20 23  1  0
 23 24  1  0
 24 25  1  0
 25 26  1  0
 25 27  2  0
 26 28  1  0
 28 29  2  0
 28 30  1  0
 30 31  1  0
 29 32  1  0
 31 32  2  0
M  END
