mac-x0124-diamond-x0910_1_A
     RDKit          3D

 17 19  0  0  0  0  0  0  0  0999 V2000
    0.0230   14.7100   -3.2260 C   0  0  0  0  0  0  0  0  0  0  0  0
   -1.1520   14.7910   -2.3920 N   0  0  0  0  0  0  0  0  0  0  0  0
   -2.4450   14.9110   -2.8330 C   0  0  0  0  0  0  0  0  0  0  0  0
   -1.1280   14.7630   -1.0180 C   0  0  0  0  0  0  0  0  0  0  0  0
   -3.2600   14.9650   -1.7250 C   0  0  0  0  0  0  0  0  0  0  0  0
   -2.4340   14.8720   -0.5620 C   0  0  0  0  0  0  0  0  0  0  0  0
   -0.0240   14.6540   -0.2690 N   0  0  0  0  0  0  0  0  0  0  0  0
   -2.6330   14.8710    0.8350 C   0  0  0  0  0  0  0  0  0  0  0  0
   -0.3290   14.6520    1.0440 C   0  0  0  0  0  0  0  0  0  0  0  0
   -3.9130   14.9980    1.3580 N   0  0  0  0  0  0  0  0  0  0  0  0
   -1.5360   14.7440    1.6210 N   0  0  0  0  0  0  0  0  0  0  0  0
   -5.0860   15.0090    0.7180 C   0  0  0  0  0  0  0  0  0  0  0  0
   -5.3300   15.5360   -0.4980 N   0  0  0  0  0  0  0  0  0  0  0  0
   -6.1720   14.4450    1.2990 N   0  0  0  0  0  0  0  0  0  0  0  0
   -7.1250   14.6040    0.4480 C   0  0  0  0  0  0  0  0  0  0  0  0
   -6.6400   15.2600   -0.6450 N   0  0  0  0  0  0  0  0  0  0  0  0
   -8.3920   14.2030    0.5880 N   0  0  0  0  0  0  0  0  0  0  0  0
  1  2  1  0
  2  3  1  0
  2  4  1  0
  3  5  2  0
  4  6  2  0
  5  6  1  0
  4  7  1  0
  6  8  1  0
  7  9  2  0
  8 10  1  0
  8 11  2  0
  9 11  1  0
 10 12  1  0
 12 13  2  0
 12 14  1  0
 14 15  2  0
 13 16  1  0
 15 16  1  0
 15 17  1  0
M  END
