mac-x0302-mac-x0576
     RDKit          3D

 19 21  0  0  0  0  0  0  0  0999 V2000
    1.4760   14.4420   -3.7600 O   0  0  0  0  0  0  0  0  0  0  0  0
    0.4500   14.2720   -2.8860 C   0  0  0  0  0  0  0  0  0  0  0  0
    0.4200   13.3270   -2.1170 O   0  0  0  0  0  0  0  0  0  0  0  0
   -0.6310   15.3610   -2.9750 C   0  0  0  0  0  0  0  0  0  0  0  0
   -1.7530   15.1510   -2.0550 N   0  0  0  0  0  0  0  0  0  0  0  0
   -3.0290   14.9380   -2.4630 C   0  0  0  0  0  0  0  0  0  0  0  0
   -1.8320   15.6530   -0.7100 C   0  0  1  0  0  0  0  0  0  0  0  0
   -3.4650   15.2260   -3.5720 O   0  0  0  0  0  0  0  0  0  0  0  0
   -3.7640   14.3170   -1.3020 C   0  0  1  0  0  0  0  0  0  0  0  0
   -2.9340   14.7840   -0.0520 C   0  0  2  0  0  0  0  0  0  0  0  0
   -0.5850   15.3650   -0.0350 N   0  0  0  0  0  0  0  0  0  0  0  0
   -5.1940   14.8610   -1.3520 C   0  0  0  0  0  0  0  0  0  0  0  0
   -3.8140   15.2960    1.0690 C   0  0  0  0  0  0  0  0  0  0  0  0
   -0.7150   14.0470    0.4860 C   0  0  2  0  0  0  0  0  0  0  0  0
   -2.1180   13.7440    0.6270 N   0  0  0  0  0  0  0  0  0  0  0  0
   -0.1440   14.1440    1.7890 N   0  0  0  0  0  0  0  0  0  0  0  0
   -5.9160   14.5610   -0.0580 C   0  0  1  0  0  0  0  0  0  0  0  0
   -5.1540   15.1790    1.0710 C   0  0  0  0  0  0  0  0  0  0  0  0
   -7.2400   15.0820   -0.1290 O   0  0  0  0  0  0  0  0  0  0  0  0
  1  2  1  0
  2  3  2  0
  2  4  1  0
  4  5  1  0
  5  6  1  0
  5  7  1  0
  6  8  2  0
  6  9  1  0
  7 10  1  0
  9 10  1  0
  7 11  1  1
  9 12  1  1
 10 13  1  1
 11 14  1  0
 10 15  1  0
 14 15  1  0
 14 16  1  1
 12 17  1  0
 13 18  2  0
 17 18  1  0
 17 19  1  6
M  END
