mac-x0179-diamond-x0805_0_A
     RDKit          3D

 29 32  0  0  0  0  0  0  0  0999 V2000
   -0.2550   12.2670   -1.5090 O   0  0  0  0  0  0  0  0  0  0  0  0
    0.3090   12.2190   -2.8110 C   0  0  0  0  0  0  0  0  0  0  0  0
    1.1470   11.1180   -2.8730 O   0  0  0  0  0  0  0  0  0  0  0  0
   -0.6340   12.1390   -4.0050 C   0  0  0  0  0  0  0  0  0  0  0  0
    0.9360   13.5270   -3.0540 C   0  0  1  0  0  0  0  0  0  0  0  0
   -0.4120   11.1570   -5.0040 N   0  0  0  0  0  0  0  0  0  0  0  0
    2.1140   13.4550   -3.9990 C   0  0  0  0  0  0  0  0  0  0  0  0
   -0.1960   14.3870   -3.6900 C   0  0  1  0  0  0  0  0  0  0  0  0
    0.3200   11.2720   -6.1770 C   0  0  0  0  0  0  0  0  0  0  0  0
   -1.5260   10.4670   -5.2160 C   0  0  0  0  0  0  0  0  0  0  0  0
   -1.5590   14.2420   -3.0120 C   0  0  0  0  0  0  0  0  0  0  0  0
    1.9790   14.4860   -4.9400 O   0  0  0  0  0  0  0  0  0  0  0  0
    0.2780   15.8110   -3.7760 C   0  0  0  0  0  0  0  0  0  0  0  0
    1.2320   12.0190   -6.4840 O   0  0  0  0  0  0  0  0  0  0  0  0
   -2.5040   10.4570   -4.5070 O   0  0  0  0  0  0  0  0  0  0  0  0
   -0.2270   10.2260   -7.0530 C   0  0  0  0  0  0  0  0  0  0  0  0
   -1.3630    9.7450   -6.4390 C   0  0  0  0  0  0  0  0  0  0  0  0
   -2.6760   13.6120   -3.5980 C   0  0  0  0  0  0  0  0  0  0  0  0
   -1.7040   14.7670   -1.7290 C   0  0  0  0  0  0  0  0  0  0  0  0
    1.6220   15.7650   -4.4240 C   0  0  0  0  0  0  0  0  0  0  0  0
    0.1990    9.7210   -8.2620 C   0  0  0  0  0  0  0  0  0  0  0  0
   -2.1480    8.7540   -6.9590 C   0  0  0  0  0  0  0  0  0  0  0  0
   -2.9040   14.6870   -1.0330 C   0  0  0  0  0  0  0  0  0  0  0  0
   -3.8870   13.5200   -2.9060 C   0  0  0  0  0  0  0  0  0  0  0  0
   -3.0960   15.1910    0.2220 O   0  0  0  0  0  0  0  0  0  0  0  0
   -0.5850    8.7010   -8.8240 C   0  0  0  0  0  0  0  0  0  0  0  0
   -1.7450    8.2230   -8.1810 C   0  0  0  0  0  0  0  0  0  0  0  0
   -3.9990   14.0600   -1.6250 C   0  0  0  0  0  0  0  0  0  0  0  0
   -4.4030   15.5840    0.6000 C   0  0  0  0  0  0  0  0  0  0  0  0
  2  1  1  0
  2  3  1  0
  2  4  1  0
  5  2  1  6
  4  6  1  0
  5  7  1  0
  5  8  1  0
  6  9  1  0
  6 10  1  0
  8 11  1  1
  7 12  1  0
  8 13  1  0
  9 14  2  0
 10 15  2  0
  9 16  1  0
 10 17  1  0
 16 17  2  0
 11 18  2  0
 11 19  1  0
 12 20  1  0
 13 20  1  0
 16 21  1  0
 17 22  1  0
 19 23  2  0
 18 24  1  0
 23 25  1  0
 21 26  2  0
 22 27  2  0
 26 27  1  0
 23 28  1  0
 24 28  2  0
 25 29  1  0
M  END
