mac-x0277-mac-x0142
     RDKit          3D

 22 25  0  0  0  0  0  0  0  0999 V2000
   -1.4010   17.6430   -5.9090 Cl  0  0  0  0  0  0  0  0  0  0  0  0
   -0.6740   16.8490   -4.5400 C   0  0  1  0  0  0  0  0  0  0  0  0
   -1.2990   15.6910   -3.9560 C   0  0  1  0  0  0  0  0  0  0  0  0
    0.7900   16.5840   -4.6430 C   0  0  0  0  0  0  0  0  0  0  0  0
   -1.9740   14.6950   -5.2420 Cl  0  0  0  0  0  0  0  0  0  0  0  0
   -0.5510   14.8560   -2.8020 C   0  0  1  0  0  0  0  0  0  0  0  0
    1.2320   15.4770   -4.2920 C   0  0  0  0  0  0  0  0  0  0  0  0
    0.7310   13.7880   -3.6190 S   0  0  0  0  0  0  0  0  0  0  0  0
    0.0540   15.5610   -1.6700 N   0  0  0  0  0  0  0  0  0  0  0  0
   -1.7650   14.4650   -1.9760 C   0  0  1  0  0  0  0  0  0  0  0  0
   -0.4260   12.3410   -3.7330 C   0  0  0  0  0  0  0  0  0  0  0  0
    1.8910   13.1000   -4.7090 C   0  0  0  0  0  0  0  0  0  0  0  0
    2.3770   12.9560   -3.4290 C   0  0  0  0  0  0  0  0  0  0  0  0
    0.3250   14.8960   -0.4360 C   0  0  0  0  0  0  0  0  0  0  0  0
   -1.9390   14.6750   -0.4140 C   0  0  2  0  0  0  0  0  0  0  0  0
   -3.1700   14.9090   -2.1350 C   0  0  0  0  0  0  0  0  0  0  0  0
   -0.0830   11.5760   -2.5420 C   0  0  0  0  0  0  0  0  0  0  0  0
   -0.8670   14.7700    0.4480 N   0  0  0  0  0  0  0  0  0  0  0  0
   -3.0940   13.9400   -0.1520 N   0  0  0  0  0  0  0  0  0  0  0  0
   -3.9420   14.6080   -1.0700 C   0  0  0  0  0  0  0  0  0  0  0  0
   -0.0670   10.1850   -2.4700 O   0  0  0  0  0  0  0  0  0  0  0  0
    0.2640   12.1430   -1.4570 O   0  0  0  0  0  0  0  0  0  0  0  0
  2  1  1  6
  2  3  1  0
  2  4  1  0
  3  5  1  6
  3  6  1  0
  4  7  2  0
  6  8  1  0
  7  8  1  0
  6  9  1  1
  6 10  1  0
  8 11  1  0
  8 12  1  0
  8 13  1  0
 12 13  1  0
  9 14  1  0
 10 15  1  0
 10 16  1  6
 11 17  1  0
 14 18  1  0
 15 18  1  1
 15 19  1  0
 16 20  2  0
 19 20  1  0
 17 21  1  0
 17 22  2  0
M  END
