mac-x0115-mac-x0255
     RDKit          3D

 29 32  0  0  0  0  0  0  0  0999 V2000
   -0.5780   18.4330   -4.5360 C   0  0  0  0  0  0  0  0  0  0  0  0
    0.6370   17.7340   -5.1170 C   0  0  0  0  0  0  0  0  0  0  0  0
    1.4720   18.7470   -5.8260 C   0  0  0  0  0  0  0  0  0  0  0  0
    1.4600   17.1470   -4.1070 O   0  0  0  0  0  0  0  0  0  0  0  0
    1.0290   15.8220   -3.9600 C   0  0  0  0  0  0  0  0  0  0  0  0
   -0.3810   15.9890   -4.3590 C   0  0  0  0  0  0  0  0  0  0  0  0
   -1.5150   15.3880   -3.8670 C   0  0  0  0  0  0  0  0  0  0  0  0
   -0.6680   16.9470   -5.3900 C   0  0  0  0  0  0  0  0  0  0  0  0
   -1.6370   14.4580   -2.8420 N   0  0  0  0  0  0  0  0  0  0  0  0
   -2.0150   17.0460   -5.6400 C   0  0  0  0  0  0  0  0  0  0  0  0
   -2.9060   15.9570   -4.6600 S   0  0  0  0  0  0  0  0  0  0  0  0
    0.2220   17.7730   -6.1370 C   0  0  0  0  0  0  0  0  0  0  0  0
   -0.4000   14.0290   -2.3510 C   0  0  0  0  0  0  0  0  0  0  0  0
   -2.6210   14.8600   -1.9290 C   0  0  0  0  0  0  0  0  0  0  0  0
   -0.2530   18.6820   -7.0860 C   0  0  0  0  0  0  0  0  0  0  0  0
   -2.4910   17.9590   -6.5890 C   0  0  0  0  0  0  0  0  0  0  0  0
    0.8980   13.4440   -3.4850 S   0  0  0  0  0  0  0  0  0  0  0  0
   -0.1910   14.0920   -0.9570 N   0  0  0  0  0  0  0  0  0  0  0  0
   -2.4690   14.6080   -0.4700 C   0  0  1  0  0  0  0  0  0  0  0  0
   -3.7750   15.4910   -2.1580 C   0  0  0  0  0  0  0  0  0  0  0  0
   -1.5970   18.7740   -7.2960 C   0  0  0  0  0  0  0  0  0  0  0  0
   -1.0270   14.7810   -0.0670 C   0  0  0  0  0  0  0  0  0  0  0  0
   -3.5780   15.3200    0.2020 N   0  0  0  0  0  0  0  0  0  0  0  0
   -4.2810   15.7250   -0.8050 C   0  0  0  0  0  0  0  0  0  0  0  0
    1.3750   13.3420   -1.7690 C   0  0  0  0  0  0  0  0  0  0  0  0
   -0.6010   15.4110    0.8960 O   0  0  0  0  0  0  0  0  0  0  0  0
    0.7520   12.1250   -1.3760 O   0  0  0  0  0  0  0  0  0  0  0  0
    0.6250   11.2570   -2.4160 C   0  0  0  0  0  0  0  0  0  0  0  0
    0.4370   10.0640   -2.3240 O   0  0  0  0  0  0  0  0  0  0  0  0
  1  2  1  0
  2  3  1  0
  2  4  1  0
  4  5  1  0
  5  6  1  0
  6  7  2  0
  6  8  1  0
  7  9  1  0
  8 10  2  0
  7 11  1  0
 10 11  1  0
  8 12  1  0
  9 13  1  0
  9 14  1  0
 12 15  2  0
 10 16  1  0
 13 17  2  3
 13 18  1  0
 14 19  1  0
 14 20  2  0
 15 21  1  0
 16 21  2  0
 18 22  1  0
 19 22  1  0
 19 23  1  1
 20 24  1  0
 23 24  2  0
 17 25  1  0
 22 26  2  0
 25 27  1  0
 27 28  1  0
 28 29  2  0
M  END
