mac-x0212-mac-x0148
     RDKit          3D

 28 31  0  0  0  0  0  0  0  0999 V2000
   -6.3270   13.0100    1.3200 C   0  0  0  0  0  0  0  0  0  0  0  0
   -7.2480   14.2570    0.4330 S   0  0  0  0  0  0  0  0  0  0  0  0
   -7.9490   15.0820    1.3880 O   0  0  0  0  0  0  0  0  0  0  0  0
   -7.9510   13.6080   -0.6480 O   0  0  0  0  0  0  0  0  0  0  0  0
   -6.0230   15.1380   -0.3120 N   0  0  0  0  0  0  0  0  0  0  0  0
   -4.8480   14.3750   -0.7240 C   0  0  2  0  0  0  0  0  0  0  0  0
   -3.5200   15.1460   -0.7340 C   0  0  0  0  0  0  0  0  0  0  0  0
   -5.0210   13.8070   -2.0750 C   0  0  0  0  0  0  0  0  0  0  0  0
   -2.3260   14.1270   -0.8560 C   0  0  2  0  0  0  0  0  0  0  0  0
   -4.0330   13.0370   -2.5060 C   0  0  0  0  0  0  0  0  0  0  0  0
   -2.8580   12.8170   -1.5720 C   0  0  1  0  0  0  0  0  0  0  0  0
   -1.9340   13.8290    0.6010 C   0  0  0  0  0  0  0  0  0  0  0  0
   -0.9230   14.5740   -1.4530 C   0  0  2  0  0  0  0  0  0  0  0  0
   -1.7690   11.9310   -2.2030 C   0  0  0  0  0  0  0  0  0  0  0  0
   -0.5060   13.9820   -2.7290 N   0  0  0  0  0  0  0  0  0  0  0  0
    0.1340   14.4780   -0.4440 N   0  0  0  0  0  0  0  0  0  0  0  0
   -1.4220   14.9880    1.2690 N   0  0  0  0  0  0  0  0  0  0  0  0
   -0.6500   11.7670   -1.6980 O   0  0  0  0  0  0  0  0  0  0  0  0
   -2.1110   11.3310   -3.3690 O   0  0  0  0  0  0  0  0  0  0  0  0
   -1.4550   14.0640   -3.8530 C   0  0  1  0  0  0  0  0  0  0  0  0
    0.9030   13.9860   -3.1610 C   0  0  0  0  0  0  0  0  0  0  0  0
   -0.1180   15.2710    0.7500 C   0  0  0  0  0  0  0  0  0  0  0  0
   -2.3020   15.2750   -4.2800 C   0  0  0  0  0  0  0  0  0  0  0  0
   -0.8600   13.7970   -5.2190 C   0  0  2  0  0  0  0  0  0  0  0  0
    1.2010   12.8380   -4.1480 C   0  0  0  0  0  0  0  0  0  0  0  0
   -2.1860   13.6550   -5.9290 C   0  0  0  0  0  0  0  0  0  0  0  0
   -2.8360   14.8990   -5.5800 O   0  0  0  0  0  0  0  0  0  0  0  0
    0.1360   12.6500   -5.2430 C   0  0  0  0  0  0  0  0  0  0  0  0
  1  2  1  0
  2  3  2  0
  2  4  2  0
  2  5  1  0
  6  5  1  6
  6  7  1  0
  6  8  1  0
  9  7  1  1
  8 10  2  0
  9 11  1  0
 10 11  1  0
  9 12  1  0
  9 13  1  0
 11 14  1  6
 13 15  1  6
 13 16  1  0
 12 17  1  0
 14 18  2  0
 14 19  1  0
 15 20  1  0
 15 21  1  0
 16 22  1  0
 17 22  1  0
 20 23  1  6
 20 24  1  0
 21 25  1  0
 24 26  1  6
 23 27  1  0
 26 27  1  0
 24 28  1  0
 25 28  1  0
M  END
