mac-x0357-mac-x0190
     RDKit          3D

 24 26  0  0  0  0  0  0  0  0999 V2000
    2.5240   13.0550   -4.5450 C   0  0  0  0  0  0  0  0  0  0  0  0
    1.1400   12.5170   -4.8050 C   0  0  0  0  0  0  0  0  0  0  0  0
    0.8050   11.9170   -6.0230 C   0  0  0  0  0  0  0  0  0  0  0  0
    0.1370   12.5950   -3.8170 C   0  0  0  0  0  0  0  0  0  0  0  0
    1.6980   11.7730   -7.0340 O   0  0  0  0  0  0  0  0  0  0  0  0
    0.4700   13.2020   -2.5020 C   0  0  0  0  0  0  0  0  0  0  0  0
   -1.1530   12.0940   -4.0550 C   0  0  0  0  0  0  0  0  0  0  0  0
   -0.4710   11.4170   -6.2700 C   0  0  0  0  0  0  0  0  0  0  0  0
   -0.1360   14.1050   -1.8050 N   0  0  0  0  0  0  0  0  0  0  0  0
    1.6030   12.6520   -2.0470 O   0  0  0  0  0  0  0  0  0  0  0  0
   -1.4530   11.5050   -5.2890 C   0  0  0  0  0  0  0  0  0  0  0  0
   -1.3750   14.7870   -2.1550 C   0  0  0  0  0  0  0  0  0  0  0  0
   -1.9160   15.4190   -0.8460 C   0  0  0  0  0  0  0  0  0  0  0  0
   -3.4110   15.2730   -0.7260 C   0  0  0  0  0  0  0  0  0  0  0  0
   -4.1680   15.4960   -1.8800 C   0  0  0  0  0  0  0  0  0  0  0  0
   -4.0620   14.9160    0.4800 C   0  0  0  0  0  0  0  0  0  0  0  0
   -5.4700   14.7850    0.4720 C   0  0  0  0  0  0  0  0  0  0  0  0
   -5.5510   15.3750   -1.8980 C   0  0  0  0  0  0  0  0  0  0  0  0
   -6.1640   15.0150   -0.7110 C   0  0  0  0  0  0  0  0  0  0  0  0
   -6.3540   14.4470    1.4710 N   0  0  0  0  0  0  0  0  0  0  0  0
   -7.5540   14.4610    0.9210 C   0  0  0  0  0  0  0  0  0  0  0  0
   -7.4780   14.8050   -0.4000 N   0  0  0  0  0  0  0  0  0  0  0  0
   -8.8440   14.1540    1.5800 C   0  0  0  0  0  0  0  0  0  0  0  0
   -9.2090   15.2830    2.3560 O   0  0  0  0  0  0  0  0  0  0  0  0
  1  2  1  0
  2  3  2  0
  2  4  1  0
  3  5  1  0
  4  6  1  0
  4  7  2  0
  3  8  1  0
  6  9  2  3
  6 10  1  0
  7 11  1  0
  8 11  2  0
  9 12  1  0
 12 13  1  0
 13 14  1  0
 14 15  2  0
 14 16  1  0
 16 17  2  0
 15 18  1  0
 17 19  1  0
 18 19  2  0
 17 20  1  0
 20 21  2  0
 19 22  1  0
 21 22  1  0
 21 23  1  0
 23 24  1  0
M  END
