mac-x0411-mac-x0357
     RDKit          3D

 18 19  0  0  0  0  0  0  0  0999 V2000
    0.5910    8.8040   -7.7020 Cl  0  0  0  0  0  0  0  0  0  0  0  0
   -0.9420    9.1470   -6.9660 C   0  0  0  0  0  0  0  0  0  0  0  0
   -1.2080   10.2510   -6.1530 C   0  0  0  0  0  0  0  0  0  0  0  0
   -1.9820    8.2530   -7.2090 C   0  0  0  0  0  0  0  0  0  0  0  0
   -2.4650   10.4560   -5.6170 C   0  0  0  0  0  0  0  0  0  0  0  0
   -3.2480    8.4680   -6.6540 C   0  0  0  0  0  0  0  0  0  0  0  0
   -0.3590   11.2760   -5.7420 C   0  0  0  0  0  0  0  0  0  0  0  0
   -2.7680   11.8510   -4.6200 Cl  0  0  0  0  0  0  0  0  0  0  0  0
   -3.4910    9.5760   -5.8560 C   0  0  0  0  0  0  0  0  0  0  0  0
   -0.1800   11.3240   -4.3820 C   0  0  0  0  0  0  0  0  0  0  0  0
    0.2170   12.1690   -6.5670 C   0  0  0  0  0  0  0  0  0  0  0  0
    0.5700   12.2760   -3.8010 C   0  0  0  0  0  0  0  0  0  0  0  0
    0.9740   13.1290   -5.9650 C   0  0  0  0  0  0  0  0  0  0  0  0
    0.7480   12.3180   -2.3490 C   0  0  0  0  0  0  0  0  0  0  0  0
    1.1470   13.1870   -4.6100 C   0  0  0  0  0  0  0  0  0  0  0  0
    2.0540   12.6950   -2.0940 O   0  0  0  0  0  0  0  0  0  0  0  0
    0.4960   11.0520   -1.7870 O   0  0  0  0  0  0  0  0  0  0  0  0
   -0.1340   13.2600   -1.7760 O   0  0  0  0  0  0  0  0  0  0  0  0
  1  2  1  0
  2  3  2  0
  2  4  1  0
  3  5  1  0
  4  6  2  0
  3  7  1  0
  5  8  1  0
  5  9  2  0
  6  9  1  0
  7 10  2  0
  7 11  1  0
 10 12  1  0
 11 13  2  0
 12 14  1  0
 12 15  2  0
 13 15  1  0
 14 16  1  0
 14 17  1  0
 14 18  1  0
M  END
