mac-x0338-diamond-x0438_0_A
     RDKit          3D

 17 18  0  0  0  0  0  0  0  0999 V2000
   -3.2730   15.5800    1.3160 N   0  0  0  0  0  0  0  0  0  0  0  0
   -4.5890   15.2640    1.3390 C   0  0  0  0  0  0  0  0  0  0  0  0
   -5.3190   15.6290    2.2320 O   0  0  0  0  0  0  0  0  0  0  0  0
   -5.1200   14.3830    0.2330 C   0  0  2  0  0  0  0  0  0  0  0  0
   -3.9610   13.6710   -0.3400 N   0  0  0  0  0  0  0  0  0  0  0  0
   -5.9800   15.0470   -0.7930 C   0  0  0  0  0  0  0  0  0  0  0  0
   -6.1480   13.6830    1.0550 N   0  0  0  0  0  0  0  0  0  0  0  0
   -3.5980   14.1200   -1.5070 C   0  0  0  0  0  0  0  0  0  0  0  0
   -5.4650   15.6800   -1.8810 N   0  0  0  0  0  0  0  0  0  0  0  0
   -7.2430   14.9430   -0.5240 N   0  0  0  0  0  0  0  0  0  0  0  0
   -7.2830   14.1450    0.6020 C   0  0  0  0  0  0  0  0  0  0  0  0
   -8.6010   13.7910    1.2270 C   0  0  0  0  0  0  0  0  0  0  0  0
   -4.2980   15.2410   -2.2390 C   0  0  0  0  0  0  0  0  0  0  0  0
   -9.2580   15.0650    2.3070 S   0  0  0  0  0  0  0  0  0  0  0  0
   -8.0800   15.3090    3.6270 C   0  0  0  0  0  0  0  0  0  0  0  0
  -10.4800   14.5780    2.9230 O   0  0  0  0  0  0  0  0  0  0  0  0
   -9.3170   16.3000    1.5470 O   0  0  0  0  0  0  0  0  0  0  0  0
  1  2  1  0
  2  3  2  0
  4  2  1  1
  4  5  1  0
  4  6  1  0
  4  7  1  0
  5  8  2  0
  6  9  1  0
  6 10  2  0
  7 11  2  0
 10 11  1  0
 11 12  1  0
  8 13  1  0
  9 13  2  0
 14 12  1  0
 14 15  1  0
 14 16  2  0
 14 17  2  0
M  END
