mac-x0213-diamond-x0465_0_A
     RDKit          3D

 22 24  0  0  0  0  0  0  0  0999 V2000
   -0.3100   11.6300   -2.9880 O   0  0  0  0  0  0  0  0  0  0  0  0
    0.4250   12.7560   -3.4210 C   0  0  0  0  0  0  0  0  0  0  0  0
    1.5580   12.7510   -2.5530 O   0  0  0  0  0  0  0  0  0  0  0  0
    0.9010   12.6400   -4.8950 C   0  0  1  0  0  0  0  0  0  0  0  0
   -0.2450   14.0930   -3.1680 C   0  0  0  0  0  0  0  0  0  0  0  0
    2.3780   12.9540   -5.0000 C   0  0  0  0  0  0  0  0  0  0  0  0
    0.7340   11.2860   -5.3810 O   0  0  0  0  0  0  0  0  0  0  0  0
   -1.5860   14.3450   -3.8860 C   0  0  0  0  0  0  0  0  0  0  0  0
    0.7200   15.2600   -3.4740 C   0  0  0  0  0  0  0  0  0  0  0  0
   -1.3820   15.6820   -4.5320 C   0  0  0  0  0  0  0  0  0  0  0  0
   -0.0970   16.1850   -4.3060 C   0  0  0  0  0  0  0  0  0  0  0  0
   -0.4800   10.7570   -5.7410 C   0  0  0  0  0  0  0  0  0  0  0  0
   -2.2990   16.4030   -5.2760 C   0  0  0  0  0  0  0  0  0  0  0  0
    0.2980   17.4080   -4.8210 C   0  0  0  0  0  0  0  0  0  0  0  0
   -0.6470    9.6610   -6.5980 C   0  0  0  0  0  0  0  0  0  0  0  0
   -1.6110   11.3580   -5.2050 C   0  0  0  0  0  0  0  0  0  0  0  0
    0.3940    9.0390   -7.1620 F   0  0  0  0  0  0  0  0  0  0  0  0
   -1.9120   17.6390   -5.7990 C   0  0  0  0  0  0  0  0  0  0  0  0
   -0.6190   18.1380   -5.5730 C   0  0  0  0  0  0  0  0  0  0  0  0
   -1.9100    9.1710   -6.9030 C   0  0  0  0  0  0  0  0  0  0  0  0
   -2.8860   10.8700   -5.5150 C   0  0  0  0  0  0  0  0  0  0  0  0
   -3.0340    9.7760   -6.3590 C   0  0  0  0  0  0  0  0  0  0  0  0
  2  1  1  0
  2  3  1  0
  2  4  1  0
  2  5  1  0
  4  6  1  1
  4  7  1  0
  5  8  1  0
  5  9  1  0
  8 10  1  0
  9 11  1  0
 10 11  2  0
  7 12  1  0
 10 13  1  0
 11 14  1  0
 12 15  2  0
 12 16  1  0
 15 17  1  0
 13 18  2  0
 14 19  2  0
 18 19  1  0
 15 20  1  0
 16 21  2  0
 20 22  2  0
 21 22  1  0
M  END
