mac-x0159-mac-x0415
     RDKit          3D

 26 29  0  0  0  0  0  0  0  0999 V2000
   -4.1240   15.8710    0.8480 N   0  0  0  0  0  0  0  0  0  0  0  0
   -3.6420   14.6200    0.3190 C   0  0  2  0  0  0  0  0  0  0  0  0
   -2.1320   14.4370    0.3480 C   0  0  1  0  0  0  0  0  0  0  0  0
   -4.1060   14.4840   -1.0420 N   0  0  0  0  0  0  0  0  0  0  0  0
   -3.4960   15.4460   -1.9410 C   0  0  0  0  0  0  0  0  0  0  0  0
   -1.5090   15.4690   -0.5490 C   0  0  2  0  0  0  0  0  0  0  0  0
   -1.3440   14.6850    1.5350 N   0  0  0  0  0  0  0  0  0  0  0  0
   -2.0260   15.5400   -1.8930 N   0  0  0  0  0  0  0  0  0  0  0  0
   -0.1190   15.0750   -0.4410 N   0  0  0  0  0  0  0  0  0  0  0  0
   -0.0180   14.6170    0.9430 C   0  0  0  0  0  0  0  0  0  0  0  0
   -1.3610   14.7290   -2.8730 C   0  0  0  0  0  0  0  0  0  0  0  0
   -0.9450   15.5040   -4.1400 C   0  0  2  0  0  0  0  0  0  0  0  0
    0.5040   15.9750   -4.1540 C   0  0  1  0  0  0  0  0  0  0  0  0
   -1.8340   16.6160   -4.5490 N   0  0  0  0  0  0  0  0  0  0  0  0
   -3.1560   16.0450   -5.7450 Br  0  0  0  0  0  0  0  0  0  0  0  0
   -1.0860   17.8750   -4.8600 C   0  0  1  0  0  0  0  0  0  0  0  0
    0.5610   17.7920   -4.0850 S   0  0  0  0  0  0  0  0  0  0  0  0
    1.4800   15.1010   -3.3720 C   0  0  0  0  0  0  0  0  0  0  0  0
    0.8800   15.6470   -5.4880 C   0  0  0  0  0  0  0  0  0  0  0  0
   -0.9050   18.2690   -6.3320 C   0  0  0  0  0  0  0  0  0  0  0  0
    1.4860   13.8010   -4.2100 C   0  0  2  0  0  0  0  0  0  0  0  0
    1.3580   14.4040   -5.5300 C   0  0  0  0  0  0  0  0  0  0  0  0
    0.4050   12.7630   -3.9910 C   0  0  0  0  0  0  0  0  0  0  0  0
    0.6070   12.0330   -2.7160 C   0  0  0  0  0  0  0  0  0  0  0  0
   -0.0020   10.8320   -2.7100 O   0  0  0  0  0  0  0  0  0  0  0  0
    1.2300   12.4110   -1.7570 O   0  0  0  0  0  0  0  0  0  0  0  0
  2  1  1  6
  2  3  1  0
  2  4  1  0
  4  5  1  0
  3  6  1  0
  3  7  1  1
  5  8  1  0
  6  8  1  0
  6  9  1  6
  7 10  1  0
  9 10  1  0
  8 11  1  0
 12 11  1  1
 12 13  1  0
 12 14  1  0
 14 15  1  0
 14 16  1  0
 13 17  1  0
 16 17  1  0
 13 18  1  1
 13 19  1  0
 16 20  1  6
 18 21  1  0
 19 22  2  0
 21 22  1  0
 21 23  1  1
 23 24  1  0
 24 25  1  0
 24 26  2  0
M  END
