mac-x0344-mac-x0255
     RDKit          3D

 21 23  0  0  0  0  0  0  0  0999 V2000
    2.4800   12.9600   -4.4860 O   0  0  0  0  0  0  0  0  0  0  0  0
    1.2440   12.9470   -3.8260 C   0  0  0  0  0  0  0  0  0  0  0  0
    1.4940   13.0120   -2.4330 O   0  0  0  0  0  0  0  0  0  0  0  0
    0.3620   11.6890   -4.1470 C   0  0  0  0  0  0  0  0  0  0  0  0
    0.5600   14.2020   -4.2730 C   0  0  0  0  0  0  0  0  0  0  0  0
   -0.0050   10.9400   -3.2370 O   0  0  0  0  0  0  0  0  0  0  0  0
    0.0900   11.5680   -5.4990 N   0  0  0  0  0  0  0  0  0  0  0  0
    1.1370   15.4250   -4.5410 C   0  0  0  0  0  0  0  0  0  0  0  0
   -1.1370   14.2620   -4.5210 S   0  0  0  0  0  0  0  0  0  0  0  0
   -0.7280   10.6150   -6.1240 C   0  0  0  0  0  0  0  0  0  0  0  0
    0.2020   16.4200   -4.9570 C   0  0  0  0  0  0  0  0  0  0  0  0
   -1.0970   15.9110   -4.9910 C   0  0  0  0  0  0  0  0  0  0  0  0
   -0.4040    9.9900   -7.3260 C   0  0  0  0  0  0  0  0  0  0  0  0
   -1.9290   10.2920   -5.4860 C   0  0  0  0  0  0  0  0  0  0  0  0
    0.4100   17.7660   -5.3180 C   0  0  0  0  0  0  0  0  0  0  0  0
   -2.1900   16.7110   -5.3740 C   0  0  0  0  0  0  0  0  0  0  0  0
   -1.2760    9.0470   -7.8840 C   0  0  0  0  0  0  0  0  0  0  0  0
   -2.8010    9.3500   -6.0440 C   0  0  0  0  0  0  0  0  0  0  0  0
   -0.6690   18.5570   -5.7020 C   0  0  0  0  0  0  0  0  0  0  0  0
   -1.9470   18.0380   -5.7300 C   0  0  0  0  0  0  0  0  0  0  0  0
   -2.4710    8.7290   -7.2440 C   0  0  0  0  0  0  0  0  0  0  0  0
  2  1  1  0
  2  3  1  0
  2  4  1  0
  2  5  1  0
  4  6  2  0
  4  7  1  0
  5  8  2  0
  5  9  1  0
  7 10  1  0
  8 11  1  0
  9 12  1  0
 11 12  2  0
 10 13  2  0
 10 14  1  0
 11 15  1  0
 12 16  1  0
 13 17  1  0
 14 18  2  0
 15 19  2  0
 16 20  2  0
 19 20  1  0
 17 21  2  0
 18 21  1  0
M  END
