mac-x0212-mac-x0337
     RDKit          3D

 24 25  0  0  0  0  0  0  0  0999 V2000
   -6.7770   12.6580    1.5860 C   0  0  0  0  0  0  0  0  0  0  0  0
   -6.7950   14.2660    0.7980 S   0  0  0  0  0  0  0  0  0  0  0  0
   -7.4500   15.1300    1.7470 O   0  0  0  0  0  0  0  0  0  0  0  0
   -7.4200   14.0650   -0.4960 O   0  0  0  0  0  0  0  0  0  0  0  0
   -5.1670   14.6830    0.5690 N   0  0  0  0  0  0  0  0  0  0  0  0
   -4.0690   13.4930    0.9400 S   0  0  0  0  0  0  0  0  0  0  0  0
   -4.6430   14.8400   -0.7430 C   0  0  0  0  0  0  0  0  0  0  0  0
   -2.7200   13.9990    0.7430 O   0  0  0  0  0  0  0  0  0  0  0  0
   -4.3670   12.7940    2.1320 O   0  0  0  0  0  0  0  0  0  0  0  0
   -3.2460   14.8780   -0.7430 C   0  0  0  0  0  0  0  0  0  0  0  0
   -5.3310   14.9210   -1.9570 C   0  0  0  0  0  0  0  0  0  0  0  0
   -4.4110   12.3600   -0.3970 C   0  0  0  0  0  0  0  0  0  0  0  0
   -2.5230   14.9700   -1.9030 C   0  0  0  0  0  0  0  0  0  0  0  0
   -4.5880   15.0160   -3.1490 C   0  0  0  0  0  0  0  0  0  0  0  0
   -3.4870   12.1270   -1.4210 C   0  0  0  0  0  0  0  0  0  0  0  0
   -5.6360   11.7000   -0.3970 C   0  0  0  0  0  0  0  0  0  0  0  0
   -3.1810   15.0350   -3.1080 C   0  0  0  0  0  0  0  0  0  0  0  0
   -3.8060   11.2170   -2.4300 C   0  0  0  0  0  0  0  0  0  0  0  0
   -5.9480   10.8000   -1.4030 C   0  0  0  0  0  0  0  0  0  0  0  0
   -2.3780   15.1210   -4.3430 C   0  0  0  0  0  0  0  0  0  0  0  0
   -5.0350   10.5480   -2.4250 C   0  0  0  0  0  0  0  0  0  0  0  0
   -1.1930   14.8310   -4.3710 O   0  0  0  0  0  0  0  0  0  0  0  0
   -3.0840   15.5430   -5.4060 O   0  0  0  0  0  0  0  0  0  0  0  0
   -5.3820    9.5670   -3.4980 C   0  0  0  0  0  0  0  0  0  0  0  0
  1  2  1  0
  2  3  2  0
  2  4  2  0
  2  5  1  0
  6  5  1  0
  5  7  1  0
  6  8  2  0
  6  9  2  0
  7 10  2  0
  7 11  1  0
  6 12  1  0
 10 13  1  0
 11 14  2  0
 12 15  2  0
 12 16  1  0
 13 17  2  0
 14 17  1  0
 15 18  1  0
 16 19  2  0
 17 20  1  0
 18 21  2  0
 19 21  1  0
 20 22  2  0
 20 23  1  0
 21 24  1  0
M  END
