mac-x0365-diamond-x0969_0_A
     RDKit          3D

 15 16  0  0  0  0  0  0  0  0999 V2000
   -0.9550   14.8190   -1.0150 O   0  0  0  0  0  0  0  0  0  0  0  0
   -1.8830   14.8520   -1.9870 C   0  0  0  0  0  0  0  0  0  0  0  0
   -1.5340   14.8610   -3.1600 O   0  0  0  0  0  0  0  0  0  0  0  0
   -3.2990   14.8720   -1.5260 C   0  0  0  0  0  0  0  0  0  0  0  0
   -4.2880   14.6370   -2.5870 C   0  0  0  0  0  0  0  0  0  0  0  0
   -3.7140   15.0750   -0.2290 C   0  0  0  0  0  0  0  0  0  0  0  0
   -5.6030   14.7310   -2.3800 C   0  0  0  0  0  0  0  0  0  0  0  0
   -5.1570   15.0060    0.0350 C   0  0  0  0  0  0  0  0  0  0  0  0
   -6.4530   14.5130   -3.3940 F   0  0  0  0  0  0  0  0  0  0  0  0
   -6.1490   15.0800   -1.0570 C   0  0  1  0  0  0  0  0  0  0  0  0
   -5.9730   14.9030    1.1030 C   0  0  0  0  0  0  0  0  0  0  0  0
   -6.5740   16.4210   -1.1180 O   0  0  0  0  0  0  0  0  0  0  0  0
   -5.6140   14.8880    2.4050 N   0  0  0  0  0  0  0  0  0  0  0  0
   -7.2910   14.8000    0.6610 N   0  0  0  0  0  0  0  0  0  0  0  0
   -7.2310   14.3030   -0.4950 N   0  0  0  0  0  0  0  0  0  0  0  0
  1  2  1  0
  2  3  2  0
  2  4  1  0
  4  5  1  0
  4  6  2  0
  5  7  2  0
  6  8  1  0
  7  9  1  0
  7 10  1  0
  8 10  1  0
  8 11  2  0
 10 12  1  6
 11 13  1  0
 11 14  1  0
 10 15  1  0
 14 15  2  0
M  END
