mac-x1493-mac-x0404
     RDKit          3D

 28 31  0  0  0  0  0  0  0  0999 V2000
   -2.0160   15.1440   -1.9550 O   0  0  0  0  0  0  0  0  0  0  0  0
   -3.1230   14.6490   -2.5460 C   0  0  0  0  0  0  0  0  0  0  0  0
   -3.2140   14.3110   -3.7760 N   0  0  0  0  0  0  0  0  0  0  0  0
   -4.2240   14.5870   -1.6590 C   0  0  0  0  0  0  0  0  0  0  0  0
   -4.0940   14.8400   -0.3090 C   0  0  0  0  0  0  0  0  0  0  0  0
   -5.4420   14.2900   -2.1840 C   0  0  0  0  0  0  0  0  0  0  0  0
   -2.0690   14.7410   -4.2480 C   0  0  0  0  0  0  0  0  0  0  0  0
   -5.2400   14.7830    0.4730 C   0  0  0  0  0  0  0  0  0  0  0  0
   -6.5640   14.2220   -1.4690 N   0  0  0  0  0  0  0  0  0  0  0  0
   -2.2210   16.0090   -4.7230 C   0  0  0  0  0  0  0  0  0  0  0  0
   -0.8860   14.0620   -4.2250 C   0  0  0  0  0  0  0  0  0  0  0  0
   -6.4620   14.4660   -0.1650 C   0  0  0  0  0  0  0  0  0  0  0  0
   -5.2180   15.0300    1.8430 C   0  0  0  0  0  0  0  0  0  0  0  0
    0.2180   14.7490   -4.6930 C   0  0  0  0  0  0  0  0  0  0  0  0
   -1.1670   16.7030   -5.1840 C   0  0  0  0  0  0  0  0  0  0  0  0
    1.4290   14.1120   -4.6570 O   0  0  0  0  0  0  0  0  0  0  0  0
   -7.6150   14.4050    0.5900 C   0  0  0  0  0  0  0  0  0  0  0  0
   -6.4030   14.9620    2.5760 C   0  0  0  0  0  0  0  0  0  0  0  0
    0.0800   16.0800   -5.1700 C   0  0  0  0  0  0  0  0  0  0  0  0
   -1.3510   18.0050   -5.6410 C   0  0  0  0  0  0  0  0  0  0  0  0
    1.2800   12.6890   -4.6950 C   0  0  0  0  0  0  0  0  0  0  0  0
   -7.5980   14.6480    1.9530 C   0  0  0  0  0  0  0  0  0  0  0  0
   -0.2670   18.7230   -6.0900 C   0  0  0  0  0  0  0  0  0  0  0  0
    1.1340   16.8250   -5.6280 C   0  0  0  0  0  0  0  0  0  0  0  0
    1.0150   12.1300   -3.2940 C   0  0  0  0  0  0  0  0  0  0  0  0
    0.9780   18.1320   -6.0800 C   0  0  0  0  0  0  0  0  0  0  0  0
    1.4610   12.9100   -2.2850 O   0  0  0  0  0  0  0  0  0  0  0  0
    0.4460   11.0650   -3.0800 O   0  0  0  0  0  0  0  0  0  0  0  0
  1  2  1  0
  2  3  2  3
  2  4  1  0
  4  5  2  0
  4  6  1  0
  3  7  1  0
  5  8  1  0
  6  9  2  0
  7 10  2  0
  7 11  1  0
  8 12  2  0
  9 12  1  0
  8 13  1  0
 11 14  2  0
 10 15  1  0
 14 16  1  0
 12 17  1  0
 13 18  2  0
 14 19  1  0
 15 19  2  0
 15 20  1  0
 16 21  1  0
 17 22  2  0
 18 22  1  0
 20 23  2  0
 19 24  1  0
 21 25  1  0
 23 26  1  0
 24 26  2  0
 25 27  1  0
 25 28  2  0
M  END
