mac-x0228-diamond-x0727_0_A
     RDKit          3D

 26 28  0  0  0  0  0  0  0  0999 V2000
   -1.1680   14.7160   -1.4720 O   0  0  0  0  0  0  0  0  0  0  0  0
   -2.0110   14.7450   -2.5150 C   0  0  0  0  0  0  0  0  0  0  0  0
   -1.5040   14.7150   -3.6900 N   0  0  0  0  0  0  0  0  0  0  0  0
   -3.3990   14.8190   -2.0390 C   0  0  0  0  0  0  0  0  0  0  0  0
   -0.0410   14.6630   -3.7880 C   0  0  0  0  0  0  0  0  0  0  0  0
   -3.6520   14.6070   -0.6790 C   0  0  0  0  0  0  0  0  0  0  0  0
   -4.4310   15.0980   -2.9380 C   0  0  0  0  0  0  0  0  0  0  0  0
    0.3990   13.8900   -5.0320 C   0  0  0  0  0  0  0  0  0  0  0  0
   -4.9650   14.6840   -0.2540 C   0  0  0  0  0  0  0  0  0  0  0  0
   -5.7530   15.1740   -2.4830 C   0  0  0  0  0  0  0  0  0  0  0  0
    1.0490   12.5280   -4.7480 C   0  0  2  0  0  0  0  0  0  0  0  0
   -5.9880   14.9650   -1.1430 C   0  0  0  0  0  0  0  0  0  0  0  0
   -5.5300   14.5010    1.0970 C   0  0  0  0  0  0  0  0  0  0  0  0
    0.2900   11.4980   -5.4290 N   0  0  0  0  0  0  0  0  0  0  0  0
    0.9480   12.1030   -3.2810 C   0  0  0  0  0  0  0  0  0  0  0  0
   -7.2300   15.0090   -0.5570 O   0  0  0  0  0  0  0  0  0  0  0  0
   -7.0130   14.4120    0.7430 C   0  0  0  0  0  0  0  0  0  0  0  0
    0.3140   11.1330   -2.8820 O   0  0  0  0  0  0  0  0  0  0  0  0
    0.5090   11.1060   -6.7170 C   0  0  0  0  0  0  0  0  0  0  0  0
    1.6430   12.8660   -2.4200 O   0  0  0  0  0  0  0  0  0  0  0  0
    1.4290   11.4630   -7.4180 O   0  0  0  0  0  0  0  0  0  0  0  0
   -0.5780   10.1350   -7.0850 C   0  0  0  0  0  0  0  0  0  0  0  0
   -1.0040   10.0360   -8.5330 C   0  0  0  0  0  0  0  0  0  0  0  0
   -0.3020    8.6880   -6.7350 C   0  0  0  0  0  0  0  0  0  0  0  0
   -1.9660    8.8460   -8.4710 C   0  0  0  0  0  0  0  0  0  0  0  0
   -1.5990    8.0590   -7.2030 C   0  0  0  0  0  0  0  0  0  0  0  0
  1  2  1  0
  2  3  2  3
  2  4  1  0
  3  5  1  0
  4  6  2  0
  4  7  1  0
  5  8  1  0
  6  9  1  0
  7 10  2  0
 11  8  1  1
  9 12  2  0
 10 12  1  0
  9 13  1  0
 11 14  1  0
 11 15  1  0
 12 16  1  0
 13 17  1  0
 16 17  1  0
 15 18  2  0
 14 19  1  0
 15 20  1  0
 19 21  2  0
 19 22  1  0
 22 23  1  0
 22 24  1  0
 23 25  1  0
 24 26  1  0
 25 26  1  0
M  END
