mac-x0142-diamond-x0910_1_A
     RDKit          3D

 22 26  0  0  0  0  0  0  0  0999 V2000
   -7.6410   13.4450    0.5960 N   0  0  0  0  0  0  0  0  0  0  0  0
   -6.6690   14.4870    0.6610 C   0  0  2  0  0  0  0  0  0  0  0  0
   -6.7820   15.2620   -0.5320 N   0  0  0  0  0  0  0  0  0  0  0  0
   -5.3940   13.8910    0.5200 N   0  0  0  0  0  0  0  0  0  0  0  0
   -4.5280   14.9660    0.0240 C   0  0  1  0  0  0  0  0  0  0  0  0
   -5.4940   15.9670   -0.4700 N   0  0  0  0  0  0  0  0  0  0  0  0
   -3.6340   15.3180    1.1040 N   0  0  0  0  0  0  0  0  0  0  0  0
   -3.6490   14.7170   -1.2630 C   0  0  0  0  0  0  0  0  0  0  0  0
   -2.3290   15.0840    0.6190 C   0  0  0  0  0  0  0  0  0  0  0  0
   -2.2700   14.7790   -0.7200 C   0  0  0  0  0  0  0  0  0  0  0  0
   -1.2840   15.1810    1.4110 N   0  0  0  0  0  0  0  0  0  0  0  0
   -1.0290   14.5980   -1.2950 C   0  0  0  0  0  0  0  0  0  0  0  0
   -0.8730   14.3080   -2.6630 N   0  0  0  0  0  0  0  0  0  0  0  0
    0.0610   14.7040   -0.5160 N   0  0  0  0  0  0  0  0  0  0  0  0
   -0.1260   14.9830    0.7890 C   0  0  0  0  0  0  0  0  0  0  0  0
   -2.0370   14.3260   -3.5420 C   0  0  0  0  0  0  0  0  0  0  0  0
    0.3280   14.7990   -3.3140 C   0  0  0  0  0  0  0  0  0  0  0  0
    0.7590   13.5970   -4.1150 C   0  0  0  0  0  0  0  0  0  0  0  0
   -1.6910   13.6890   -4.9060 C   0  0  0  0  0  0  0  0  0  0  0  0
    2.2050   13.4130   -4.5170 C   0  0  0  0  0  0  0  0  0  0  0  0
    1.6510   12.6320   -3.3660 C   0  0  0  0  0  0  0  0  0  0  0  0
   -0.3300   12.9710   -4.9830 C   0  0  0  0  0  0  0  0  0  0  0  0
  2  1  1  6
  2  3  1  0
  2  4  1  0
  5  4  1  0
  3  6  1  0
  5  6  1  0
  5  7  1  0
  5  8  1  6
  7  9  1  0
  8 10  1  0
  9 10  2  0
  9 11  1  0
 10 12  1  0
 12 13  1  0
 12 14  2  0
 11 15  2  0
 14 15  1  0
 13 16  1  0
 13 17  1  0
 18 17  1  0
 16 19  1  0
 18 20  1  0
 18 21  1  0
 20 21  1  0
 18 22  1  0
 19 22  1  0
M  END
