mac-x0138-mac-x0472
     RDKit          3D

 21 24  0  0  0  0  0  0  0  0999 V2000
   -3.4310   13.9540   -3.1530 C   0  0  0  0  0  0  0  0  0  0  0  0
   -3.2210   12.5770   -1.8070 S   0  0  0  0  0  0  0  0  0  0  0  0
   -4.4600   12.6310   -0.8490 O   0  0  0  0  0  0  0  0  0  0  0  0
   -3.5310   14.9690   -2.1600 N   0  0  0  0  0  0  0  0  0  0  0  0
   -1.6060   12.9740   -1.2430 N   0  0  0  0  0  0  0  0  0  0  0  0
   -4.9060   15.2440   -1.9930 C   0  0  0  0  0  0  0  0  0  0  0  0
   -3.2070   14.3670   -0.9110 C   0  0  2  0  0  0  0  0  0  0  0  0
   -3.2680   11.0800   -2.8400 C   0  0  0  0  0  0  0  0  0  0  0  0
   -4.9830   15.8660   -0.6930 N   0  0  0  0  0  0  0  0  0  0  0  0
   -4.1110   15.0280    0.0680 C   0  0  2  0  0  0  0  0  0  0  0  0
   -1.8370   14.2410   -0.6710 N   0  0  0  0  0  0  0  0  0  0  0  0
   -2.2520   10.7830   -3.7030 C   0  0  0  0  0  0  0  0  0  0  0  0
   -4.3300   10.2790   -2.7310 C   0  0  0  0  0  0  0  0  0  0  0  0
   -3.3920   15.6260    1.1750 C   0  0  1  0  0  0  0  0  0  0  0  0
   -1.3850   14.3310    0.6540 C   0  0  1  0  0  0  0  0  0  0  0  0
   -2.3180    9.6530   -4.4730 C   0  0  0  0  0  0  0  0  0  0  0  0
   -4.4040    9.1480   -3.4930 C   0  0  0  0  0  0  0  0  0  0  0  0
   -4.3880   15.8420    2.2160 N   0  0  0  0  0  0  0  0  0  0  0  0
   -0.2410   15.2680    0.7110 N   0  0  0  0  0  0  0  0  0  0  0  0
   -2.3680   14.7380    1.6330 N   0  0  0  0  0  0  0  0  0  0  0  0
   -3.3990    8.8220   -4.3740 C   0  0  0  0  0  0  0  0  0  0  0  0
  1  2  1  0
  2  3  2  0
  1  4  1  0
  2  5  1  0
  4  6  1  0
  7  4  1  6
  2  8  1  0
  6  9  1  0
  7 10  1  0
 10  9  1  6
  5 11  1  0
  7 11  1  0
  8 12  2  0
  8 13  1  0
 10 14  1  0
 11 15  1  0
 12 16  1  0
 13 17  2  0
 14 18  1  1
 15 19  1  6
 14 20  1  0
 15 20  1  0
 16 21  2  0
 17 21  1  0
M  END
