mac-x0365-diamond-x0962_0_A
     RDKit          3D

 12 12  0  0  0  0  0  0  0  0999 V2000
   -0.7460   15.1730   -1.2780 O   0  0  0  0  0  0  0  0  0  0  0  0
   -1.7950   14.6290   -2.0440 C   0  0  0  0  0  0  0  0  0  0  0  0
   -1.6750   15.1180   -3.3660 O   0  0  0  0  0  0  0  0  0  0  0  0
   -1.6150   13.1340   -2.0380 C   0  0  0  0  0  0  0  0  0  0  0  0
   -3.1760   14.8350   -1.4830 C   0  0  0  0  0  0  0  0  0  0  0  0
   -4.2680   14.9570   -2.3470 C   0  0  0  0  0  0  0  0  0  0  0  0
   -3.3920   14.8800   -0.0910 C   0  0  0  0  0  0  0  0  0  0  0  0
   -5.5380   15.1010   -1.8290 C   0  0  0  0  0  0  0  0  0  0  0  0
   -4.6810   15.0290    0.4190 C   0  0  0  0  0  0  0  0  0  0  0  0
   -6.5850   15.2060   -2.6500 F   0  0  0  0  0  0  0  0  0  0  0  0
   -5.7500   15.1290   -0.4630 C   0  0  0  0  0  0  0  0  0  0  0  0
   -7.0140   15.2510    0.0240 O   0  0  0  0  0  0  0  0  0  0  0  0
  2  1  1  0
  2  3  1  0
  2  4  1  0
  2  5  1  0
  5  6  2  0
  5  7  1  0
  6  8  1  0
  7  9  2  0
  8 10  1  0
  8 11  2  0
  9 11  1  0
 11 12  1  0
M  END
