mac-x0163-mac-x0319
     RDKit          3D

 22 24  0  0  0  0  0  0  0  0999 V2000
   -4.2620   15.6530   -1.1600 Cl  0  0  0  0  0  0  0  0  0  0  0  0
   -2.7500   15.3430   -0.3910 C   0  0  0  0  0  0  0  0  0  0  0  0
   -2.6960   15.1640    0.9810 C   0  0  0  0  0  0  0  0  0  0  0  0
   -1.5660   15.2690   -1.1060 C   0  0  0  0  0  0  0  0  0  0  0  0
   -3.8520   15.2740    1.7590 N   0  0  0  0  0  0  0  0  0  0  0  0
   -0.4010   14.9960   -0.4620 N   0  0  0  0  0  0  0  0  0  0  0  0
   -1.5610   14.9030    1.6380 N   0  0  0  0  0  0  0  0  0  0  0  0
   -1.5820   15.4800   -2.5090 N   0  0  0  0  0  0  0  0  0  0  0  0
   -0.4650   14.8270    0.8740 C   0  0  0  0  0  0  0  0  0  0  0  0
   -2.4070   14.6060   -3.3730 C   0  0  0  0  0  0  0  0  0  0  0  0
   -0.4930   16.2450   -3.1250 C   0  0  0  0  0  0  0  0  0  0  0  0
   -1.5420   13.7250   -4.3340 C   0  0  0  0  0  0  0  0  0  0  0  0
    0.4610   15.3340   -3.9140 C   0  0  2  0  0  0  0  0  0  0  0  0
    0.7020   15.8970   -5.2050 O   0  0  0  0  0  0  0  0  0  0  0  0
   -2.1300   12.2750   -4.4250 C   0  0  0  0  0  0  0  0  0  0  0  0
   -1.9690   13.8590   -5.8250 C   0  0  0  0  0  0  0  0  0  0  0  0
   -0.0770   13.8780   -3.8660 C   0  0  2  0  0  0  0  0  0  0  0  0
    0.8860   12.6880   -3.9050 C   0  0  0  0  0  0  0  0  0  0  0  0
   -2.9980   12.7450   -5.6010 C   0  0  0  0  0  0  0  0  0  0  0  0
    0.7690   11.8400   -2.6630 C   0  0  0  0  0  0  0  0  0  0  0  0
    0.6440   10.5220   -2.8790 O   0  0  0  0  0  0  0  0  0  0  0  0
    0.7650   12.2700   -1.5180 O   0  0  0  0  0  0  0  0  0  0  0  0
  1  2  1  0
  2  3  2  0
  2  4  1  0
  3  5  1  0
  4  6  2  0
  3  7  1  0
  4  8  1  0
  6  9  1  0
  7  9  2  0
  8 10  1  0
  8 11  1  0
 12 10  1  0
 11 13  1  0
 13 14  1  6
 12 15  1  0
 12 16  1  0
 12 17  1  0
 13 17  1  0
 17 18  1  6
 15 19  1  0
 16 19  1  0
 18 20  1  0
 20 21  1  0
 20 22  2  0
M  END
