mac-x0576-mac-x0439
     RDKit          3D

 26 29  0  0  0  0  0  0  0  0999 V2000
   -0.0890   13.8720    1.3560 N   0  0  0  0  0  0  0  0  0  0  0  0
   -0.6340   14.9680    0.6200 C   0  0  2  0  0  0  0  0  0  0  0  0
   -1.9000   15.0900    1.2690 N   0  0  0  0  0  0  0  0  0  0  0  0
   -0.5980   14.8920   -0.8030 N   0  0  0  0  0  0  0  0  0  0  0  0
   -1.6910   14.6030   -1.6010 C   0  0  0  0  0  0  0  0  0  0  0  0
   -2.9380   14.3010    0.6350 C   0  0  2  0  0  0  0  0  0  0  0  0
   -1.5580   14.6770   -2.9250 N   0  0  0  0  0  0  0  0  0  0  0  0
   -3.0420   14.2630   -0.9250 C   0  0  1  0  0  0  0  0  0  0  0  0
   -4.1390   14.7670    1.2970 N   0  0  0  0  0  0  0  0  0  0  0  0
   -5.3300   14.9340    0.6410 C   0  0  0  0  0  0  0  0  0  0  0  0
   -3.9480   15.3410   -1.4160 N   0  0  0  0  0  0  0  0  0  0  0  0
   -0.4250   15.1460   -3.5640 C   0  0  0  0  0  0  0  0  0  0  0  0
   -6.3930   14.8270    1.2510 O   0  0  0  0  0  0  0  0  0  0  0  0
   -5.3000   15.2510   -0.8500 C   0  0  0  0  0  0  0  0  0  0  0  0
    0.9140   15.0380   -3.3930 C   0  0  0  0  0  0  0  0  0  0  0  0
   -0.5910   15.9500   -4.8020 C   0  0  2  0  0  0  0  0  0  0  0  0
    1.6340   14.1990   -2.4150 C   0  0  0  0  0  0  0  0  0  0  0  0
    0.7380   16.5850   -4.8900 C   0  0  0  0  0  0  0  0  0  0  0  0
    1.6300   15.9340   -4.1990 N   0  0  0  0  0  0  0  0  0  0  0  0
   -1.7240   16.7410   -5.2720 C   0  0  0  0  0  0  0  0  0  0  0  0
   -3.2350   16.0060   -4.9890 Cl  0  0  0  0  0  0  0  0  0  0  0  0
    2.9770   14.3580   -2.4350 O   0  0  0  0  0  0  0  0  0  0  0  0
    1.1310   13.3890   -1.6650 O   0  0  0  0  0  0  0  0  0  0  0  0
   -1.5560   17.9090   -5.9100 C   0  0  0  0  0  0  0  0  0  0  0  0
    0.9130   17.8030   -5.7310 C   0  0  0  0  0  0  0  0  0  0  0  0
   -0.2140   18.4040   -6.1760 C   0  0  0  0  0  0  0  0  0  0  0  0
  2  1  1  1
  2  3  1  0
  2  4  1  0
  4  5  1  0
  6  3  1  6
  5  7  2  3
  5  8  1  0
  6  8  1  0
  6  9  1  0
  9 10  1  0
  8 11  1  6
  7 12  1  0
 10 13  2  0
 10 14  1  0
 11 14  1  0
 12 15  2  0
 16 12  1  1
 15 17  1  0
 16 18  1  0
 15 19  1  0
 18 19  2  0
 16 20  1  0
 20 21  1  0
 17 22  1  0
 17 23  2  0
 20 24  2  0
 18 25  1  0
 24 26  1  0
 25 26  2  0
M  END
