mac-x0306-mac-x0116
     RDKit          3D

 22 25  0  0  0  0  0  0  0  0999 V2000
   -4.9980   14.0420    2.2940 C   0  0  0  0  0  0  0  0  0  0  0  0
   -4.6450   15.0330    1.3340 N   0  0  0  0  0  0  0  0  0  0  0  0
   -4.4200   14.4900    0.0020 C   0  0  2  0  0  0  0  0  0  0  0  0
   -5.8550   12.8880    1.9010 C   0  0  0  0  0  0  0  0  0  0  0  0
   -5.9410   12.4940    0.5970 O   0  0  0  0  0  0  0  0  0  0  0  0
   -6.6350   12.0780    2.6930 C   0  0  0  0  0  0  0  0  0  0  0  0
   -2.9460   14.7370   -0.5330 C   0  0  1  0  0  0  0  0  0  0  0  0
   -5.5530   15.2590   -0.7180 C   0  0  2  0  0  0  0  0  0  0  0  0
   -7.2300   11.1350    1.8380 C   0  0  0  0  0  0  0  0  0  0  0  0
   -6.7780   11.4260    0.5740 C   0  0  0  0  0  0  0  0  0  0  0  0
   -6.8660   14.9170   -0.0290 C   0  0  0  0  0  0  0  0  0  0  0  0
   -5.4060   15.1470   -2.1930 C   0  0  0  0  0  0  0  0  0  0  0  0
   -3.0590   15.3670   -1.8760 N   0  0  0  0  0  0  0  0  0  0  0  0
   -2.1260   15.3370    0.5630 N   0  0  0  0  0  0  0  0  0  0  0  0
   -2.1800   13.4270   -0.6870 C   0  0  0  0  0  0  0  0  0  0  0  0
   -6.9190   14.7950    1.3470 N   0  0  0  0  0  0  0  0  0  0  0  0
   -8.0630   14.7030   -0.5330 N   0  0  0  0  0  0  0  0  0  0  0  0
   -4.1720   15.2060   -2.6850 C   0  0  0  0  0  0  0  0  0  0  0  0
   -1.0170   13.4370    0.2340 N   0  0  0  0  0  0  0  0  0  0  0  0
   -0.7960   14.7920    0.5660 C   0  0  0  0  0  0  0  0  0  0  0  0
   -8.8850   14.4440    0.5390 C   0  0  0  0  0  0  0  0  0  0  0  0
   -8.1890   14.4980    1.7170 C   0  0  0  0  0  0  0  0  0  0  0  0
  1  2  1  0
  3  2  1  1
  1  4  1  0
  4  5  1  0
  4  6  2  0
  3  7  1  0
  3  8  1  0
  6  9  1  0
  5 10  1  0
  9 10  2  0
  8 11  1  1
  8 12  1  0
  7 13  1  0
  7 14  1  0
  7 15  1  6
 11 16  1  0
 11 17  2  0
 12 18  2  0
 13 18  1  0
 15 19  1  0
 14 20  1  0
 19 20  1  0
 17 21  1  0
 16 22  1  0
 21 22  2  0
M  END
