mac-x0284-mac-x0206
     RDKit          3D

 20 21  0  0  0  0  0  0  0  0999 V2000
   -4.1700   15.0360    0.0230 C   0  0  2  0  0  0  0  0  0  0  0  0
   -3.4340   15.9470    0.8570 N   0  0  0  0  0  0  0  0  0  0  0  0
   -3.7370   13.7940    0.4600 O   0  0  0  0  0  0  0  0  0  0  0  0
   -3.5740   15.0370   -1.3330 C   0  0  0  0  0  0  0  0  0  0  0  0
   -5.6380   14.9170    0.3220 C   0  0  0  0  0  0  0  0  0  0  0  0
   -2.2050   14.7580   -1.3790 C   0  0  0  0  0  0  0  0  0  0  0  0
   -4.2770   15.2800   -2.5020 C   0  0  0  0  0  0  0  0  0  0  0  0
   -6.7650   14.7680   -0.5020 C   0  0  0  0  0  0  0  0  0  0  0  0
   -5.8540   14.9560    1.6910 C   0  0  0  0  0  0  0  0  0  0  0  0
   -6.7340   14.7110   -1.8640 O   0  0  0  0  0  0  0  0  0  0  0  0
   -1.5200   14.7100   -2.5750 C   0  0  0  0  0  0  0  0  0  0  0  0
   -3.6010   15.2310   -3.7160 C   0  0  0  0  0  0  0  0  0  0  0  0
   -8.0370   14.6610    0.0600 C   0  0  0  0  0  0  0  0  0  0  0  0
   -7.1080   14.8460    2.2650 C   0  0  0  0  0  0  0  0  0  0  0  0
   -0.0680   14.4080   -2.4990 C   0  0  0  0  0  0  0  0  0  0  0  0
   -2.2350   14.9460   -3.7510 C   0  0  0  0  0  0  0  0  0  0  0  0
   -8.2120   14.6970    1.4450 C   0  0  0  0  0  0  0  0  0  0  0  0
   -1.6720   14.9160   -4.9880 O   0  0  0  0  0  0  0  0  0  0  0  0
    0.6420   14.4960   -1.5160 O   0  0  0  0  0  0  0  0  0  0  0  0
    0.4500   13.9990   -3.6730 O   0  0  0  0  0  0  0  0  0  0  0  0
  1  2  1  1
  1  3  1  0
  1  4  1  0
  1  5  1  0
  4  6  2  0
  4  7  1  0
  5  8  2  0
  5  9  1  0
  8 10  1  0
  6 11  1  0
  7 12  2  0
  8 13  1  0
  9 14  2  0
 11 15  1  0
 11 16  2  0
 12 16  1  0
 13 17  2  0
 14 17  1  0
 16 18  1  0
 15 19  2  0
 15 20  1  0
M  END
