mac-x0347-mac-x0572
     RDKit          3D

 22 24  0  0  0  0  0  0  0  0999 V2000
    1.4880   14.5350   -3.5780 O   0  0  0  0  0  0  0  0  0  0  0  0
    0.7540   14.1100   -2.5330 C   0  0  0  0  0  0  0  0  0  0  0  0
    1.2270   13.5440   -1.5720 O   0  0  0  0  0  0  0  0  0  0  0  0
   -0.6780   14.3950   -2.6680 C   0  0  0  0  0  0  0  0  0  0  0  0
   -1.5730   14.2050   -1.6150 C   0  0  0  0  0  0  0  0  0  0  0  0
   -1.1480   14.8660   -3.8870 C   0  0  0  0  0  0  0  0  0  0  0  0
   -2.9140   14.4990   -1.8320 C   0  0  0  0  0  0  0  0  0  0  0  0
   -2.4470   15.1600   -4.1220 N   0  0  0  0  0  0  0  0  0  0  0  0
   -3.2890   14.9690   -3.0920 C   0  0  0  0  0  0  0  0  0  0  0  0
   -3.9810   14.3530   -0.8000 C   0  0  2  0  0  0  0  0  0  0  0  0
   -4.1470   15.5820    0.0200 C   0  0  0  0  0  0  0  0  0  0  0  0
   -4.2160   13.1530    0.0930 C   0  0  0  0  0  0  0  0  0  0  0  0
   -5.5410   15.1730    0.2010 C   0  0  1  0  0  0  0  0  0  0  0  0
   -5.0830   13.2000    1.1700 C   0  0  0  0  0  0  0  0  0  0  0  0
   -5.8530   14.4700    1.5140 C   0  0  2  0  0  0  0  0  0  0  0  0
   -6.5260   15.6640   -0.8310 C   0  0  0  0  0  0  0  0  0  0  0  0
   -7.3700   14.2790    1.8550 C   0  0  1  0  0  0  0  0  0  0  0  0
   -7.7500   14.8660   -0.6270 C   0  0  0  0  0  0  0  0  0  0  0  0
   -7.7670   14.8580    3.2270 C   0  0  0  0  0  0  0  0  0  0  0  0
   -8.2630   14.2500   -1.5540 O   0  0  0  0  0  0  0  0  0  0  0  0
   -8.3300   14.8370    0.7790 C   0  0  1  0  0  0  0  0  0  0  0  0
   -9.5130   14.0520    0.7600 O   0  0  0  0  0  0  0  0  0  0  0  0
  1  2  1  0
  2  3  2  0
  2  4  1  0
  4  5  2  0
  4  6  1  0
  5  7  1  0
  6  8  2  0
  7  9  2  0
  8  9  1  0
 10  7  1  1
 10 11  1  0
 10 12  1  0
 13 11  1  1
 12 14  2  0
 13 15  1  0
 15 14  1  6
 13 16  1  0
 15 17  1  0
 16 18  1  0
 17 19  1  1
 18 20  2  0
 17 21  1  0
 18 21  1  0
 21 22  1  6
M  END
