mac-x0344-diamond-x0685_1_A
     RDKit          3D

 14 14  0  0  0  0  0  0  0  0999 V2000
    1.5350   13.6880   -4.3580 O   0  0  0  0  0  0  0  0  0  0  0  0
    1.0750   12.8390   -3.3170 C   0  0  0  0  0  0  0  0  0  0  0  0
    2.2540   12.5480   -2.6480 O   0  0  0  0  0  0  0  0  0  0  0  0
    0.3140   11.5810   -3.9590 C   0  0  0  0  0  0  0  0  0  0  0  0
    0.3160   13.6110   -2.4330 O   0  0  0  0  0  0  0  0  0  0  0  0
    0.2480   10.5430   -3.2880 O   0  0  0  0  0  0  0  0  0  0  0  0
   -0.2670   11.6980   -5.2260 N   0  0  0  0  0  0  0  0  0  0  0  0
   -1.0520   12.9100   -5.3340 C   0  0  0  0  0  0  0  0  0  0  0  0
   -0.8410   10.6350   -5.9660 C   0  0  0  0  0  0  0  0  0  0  0  0
   -0.6090   10.4660   -7.3330 C   0  0  0  0  0  0  0  0  0  0  0  0
   -1.6730    9.7270   -5.3250 C   0  0  0  0  0  0  0  0  0  0  0  0
   -1.2130    9.4130   -8.0320 C   0  0  0  0  0  0  0  0  0  0  0  0
   -2.2820    8.6820   -6.0070 C   0  0  0  0  0  0  0  0  0  0  0  0
   -2.0530    8.5250   -7.3660 C   0  0  0  0  0  0  0  0  0  0  0  0
  2  1  1  0
  2  3  1  0
  2  4  1  0
  2  5  1  0
  4  6  2  0
  4  7  1  0
  7  8  1  0
  7  9  1  0
  9 10  2  0
  9 11  1  0
 10 12  1  0
 11 13  2  0
 12 14  2  0
 13 14  1  0
M  END
