mac-x0124-mac-x0455
     RDKit          3D

 22 24  0  0  0  0  0  0  0  0999 V2000
   -0.3370   14.4560   -2.8290 C   0  0  0  0  0  0  0  0  0  0  0  0
   -0.9680   14.4080   -4.2480 C   0  0  1  0  0  0  0  0  0  0  0  0
   -2.4310   14.8650   -4.1590 C   0  0  0  0  0  0  0  0  0  0  0  0
    0.6860   15.4540   -2.7230 O   0  0  0  0  0  0  0  0  0  0  0  0
    0.3280   13.2420   -2.4460 O   0  0  0  0  0  0  0  0  0  0  0  0
   -1.4410   14.7110   -1.9560 N   0  0  0  0  0  0  0  0  0  0  0  0
   -0.3590   15.4240   -5.0790 O   0  0  0  0  0  0  0  0  0  0  0  0
   -2.7300   15.0110   -2.3580 C   0  0  0  0  0  0  0  0  0  0  0  0
   -1.3690   14.6920   -0.6290 C   0  0  0  0  0  0  0  0  0  0  0  0
   -0.8680   13.0380   -4.8930 C   0  0  0  0  0  0  0  0  0  0  0  0
   -3.4870   15.1900   -1.2390 C   0  0  0  0  0  0  0  0  0  0  0  0
   -2.6260   14.9890   -0.1390 C   0  0  0  0  0  0  0  0  0  0  0  0
   -0.2490   14.4290    0.0430 N   0  0  0  0  0  0  0  0  0  0  0  0
   -1.8880   12.0990   -4.6560 C   0  0  0  0  0  0  0  0  0  0  0  0
    0.2000   12.6700   -5.7180 C   0  0  0  0  0  0  0  0  0  0  0  0
   -2.7430   15.0250    1.2230 C   0  0  0  0  0  0  0  0  0  0  0  0
   -0.4880   14.4800    1.3540 C   0  0  0  0  0  0  0  0  0  0  0  0
   -1.8470   10.8290   -5.2280 C   0  0  0  0  0  0  0  0  0  0  0  0
    0.2420   11.4010   -6.2900 C   0  0  0  0  0  0  0  0  0  0  0  0
   -3.9360   15.3350    1.8340 N   0  0  0  0  0  0  0  0  0  0  0  0
   -1.6580   14.7550    1.9630 N   0  0  0  0  0  0  0  0  0  0  0  0
   -0.7770   10.4840   -6.0470 C   0  0  0  0  0  0  0  0  0  0  0  0
  1  2  1  0
  2  3  1  1
  1  4  1  0
  1  5  1  0
  1  6  1  0
  2  7  1  0
  6  8  1  0
  6  9  1  0
  2 10  1  0
  8 11  2  0
  9 12  2  0
 11 12  1  0
  9 13  1  0
 10 14  2  0
 10 15  1  0
 12 16  1  0
 13 17  2  0
 14 18  1  0
 15 19  2  0
 16 20  1  0
 16 21  2  0
 17 21  1  0
 18 22  2  0
 19 22  1  0
M  END
