mac-x0231-mac-x0588
     RDKit          3D

 30 34  0  0  0  0  0  0  0  0999 V2000
    0.4050   10.5960   -2.9030 O   0  0  0  0  0  0  0  0  0  0  0  0
    1.0730   11.7740   -2.9310 C   0  0  0  0  0  0  0  0  0  0  0  0
    1.2990   12.4260   -1.9240 O   0  0  0  0  0  0  0  0  0  0  0  0
    1.4950   12.1620   -4.3070 C   0  0  0  0  0  0  0  0  0  0  0  0
    1.0040   13.4750   -4.6400 C   0  0  0  0  0  0  0  0  0  0  0  0
   -0.4280   13.6020   -5.0050 C   0  0  0  0  0  0  0  0  0  0  0  0
    1.8760   14.4120   -4.5530 N   0  0  0  0  0  0  0  0  0  0  0  0
   -0.8740   14.8680   -5.2440 C   0  0  0  0  0  0  0  0  0  0  0  0
    1.4200   15.6290   -4.8320 N   0  0  0  0  0  0  0  0  0  0  0  0
   -1.3100   12.5270   -5.0950 C   0  0  0  0  0  0  0  0  0  0  0  0
    0.0990   15.9160   -5.1240 C   0  0  0  0  0  0  0  0  0  0  0  0
   -2.2260   15.0950   -5.5660 C   0  0  0  0  0  0  0  0  0  0  0  0
   -2.6540   12.7500   -5.4230 C   0  0  0  0  0  0  0  0  0  0  0  0
   -3.1130   14.0420   -5.6550 C   0  0  0  0  0  0  0  0  0  0  0  0
   -0.2480   17.1010   -5.1980 C   0  0  0  0  0  0  0  0  0  0  0  0
    0.6210   18.1080   -4.8910 C   0  0  0  0  0  0  0  0  0  0  0  0
   -1.5200   17.7870   -5.4370 C   0  0  0  0  0  0  0  0  0  0  0  0
   -1.5320   18.3180   -4.1250 O   0  0  0  0  0  0  0  0  0  0  0  0
   -0.2220   17.8870   -3.6330 C   0  0  1  0  0  0  0  0  0  0  0  0
   -0.4070   16.3910   -3.0370 C   0  0  0  0  0  0  0  0  0  0  0  0
   -1.4780   15.9960   -2.0460 N   0  0  0  0  0  0  0  0  0  0  0  0
   -2.7180   15.3710   -2.5100 C   0  0  0  0  0  0  0  0  0  0  0  0
   -1.0750   15.6690   -0.6780 C   0  0  1  0  0  0  0  0  0  0  0  0
   -3.7840   15.4510   -1.4990 N   0  0  0  0  0  0  0  0  0  0  0  0
   -2.1840   15.4950    0.3910 C   0  0  1  0  0  0  0  0  0  0  0  0
   -0.2710   14.4880   -0.4510 N   0  0  0  0  0  0  0  0  0  0  0  0
   -3.4320   14.8540   -0.2280 C   0  0  1  0  0  0  0  0  0  0  0  0
   -1.5120   14.8210    1.5140 N   0  0  0  0  0  0  0  0  0  0  0  0
   -0.1830   14.4850    1.0030 C   0  0  0  0  0  0  0  0  0  0  0  0
   -4.5880   15.0310    0.6380 N   0  0  0  0  0  0  0  0  0  0  0  0
  1  2  1  0
  2  3  2  0
  2  4  1  0
  4  5  1  0
  5  6  1  0
  5  7  2  0
  6  8  2  0
  7  9  1  0
  6 10  1  0
  8 11  1  0
  9 11  1  0
  8 12  1  0
 10 13  2  0
 12 14  2  0
 13 14  1  0
 11 15  2  3
 15 16  1  0
 15 17  1  0
 17 18  1  0
 16 19  1  0
 18 19  1  0
 19 20  1  6
 20 21  1  0
 21 22  1  0
 21 23  1  0
 22 24  1  0
 23 25  1  0
 23 26  1  6
 24 27  1  0
 25 27  1  0
 25 28  1  1
 26 29  1  0
 28 29  1  0
 27 30  1  1
M  END
