mac-x0587-diamond-x0685_0_A
     RDKit          3D

 24 25  0  0  0  0  0  0  0  0999 V2000
   -0.3620   15.3730   -3.3760 C   0  0  0  0  0  0  0  0  0  0  0  0
   -1.3080   14.1900   -3.0550 C   0  0  2  0  0  0  0  0  0  0  0  0
   -1.1080   13.1360   -4.5900 S   0  0  0  0  0  0  0  0  0  0  0  0
   -2.7920   14.6430   -2.5890 C   0  0  2  0  0  0  0  0  0  0  0  0
   -0.7890   11.4880   -3.8800 C   0  0  0  0  0  0  0  0  0  0  0  0
   -3.6410   14.9460   -3.7080 O   0  0  0  0  0  0  0  0  0  0  0  0
   -2.6380   15.8250   -1.8390 N   0  0  0  0  0  0  0  0  0  0  0  0
   -3.6610   14.3130   -1.2960 C   0  0  0  0  0  0  0  0  0  0  0  0
    0.4000   11.3810   -2.9550 C   0  0  0  0  0  0  0  0  0  0  0  0
   -3.8600   15.8390   -1.0280 C   0  0  0  0  0  0  0  0  0  0  0  0
   -1.5700   15.7870   -0.9190 C   0  0  0  0  0  0  0  0  0  0  0  0
   -3.1200   13.8610   -0.0730 C   0  0  0  0  0  0  0  0  0  0  0  0
   -5.0740   14.5210   -1.2320 C   0  0  0  0  0  0  0  0  0  0  0  0
    0.7050   10.4440   -2.2350 O   0  0  0  0  0  0  0  0  0  0  0  0
    1.1780   12.4890   -2.9570 O   0  0  0  0  0  0  0  0  0  0  0  0
   -0.3780   15.7170   -1.1440 O   0  0  0  0  0  0  0  0  0  0  0  0
   -3.4500   16.0020    0.4290 C   0  0  0  0  0  0  0  0  0  0  0  0
   -2.0390   15.8150    0.3780 N   0  0  0  0  0  0  0  0  0  0  0  0
   -3.9260   13.6760    1.0660 C   0  0  0  0  0  0  0  0  0  0  0  0
   -5.8740   14.3360   -0.1210 N   0  0  0  0  0  0  0  0  0  0  0  0
   -5.2920   13.9260    1.0250 C   0  0  0  0  0  0  0  0  0  0  0  0
   -6.0030   13.7280    2.2250 N   0  0  0  0  0  0  0  0  0  0  0  0
   -7.1580   14.5590    2.5340 C   0  0  0  0  0  0  0  0  0  0  0  0
   -8.2610   13.6880    3.1100 C   0  0  0  0  0  0  0  0  0  0  0  0
  2  1  1  6
  2  3  1  0
  2  4  1  0
  3  5  1  0
  4  6  1  6
  4  7  1  0
  4  8  1  0
  5  9  1  0
  7 10  1  0
  7 11  1  0
  8 12  2  0
  8 13  1  0
  9 14  2  0
  9 15  1  0
 11 16  2  0
 10 17  1  0
 11 18  1  0
 17 18  1  0
 12 19  1  0
 13 20  2  0
 19 21  2  0
 20 21  1  0
 21 22  1  0
 22 23  1  0
 23 24  1  0
M  END
