mac-x0402-diamond-x0371_0_A
     RDKit          3D

 19 21  0  0  0  0  0  0  0  0999 V2000
   -1.8900   14.9880   -3.1390 Cl  0  0  0  0  0  0  0  0  0  0  0  0
   -3.2740   14.9920   -2.1070 C   0  0  0  0  0  0  0  0  0  0  0  0
   -4.5230   15.0540   -2.6980 C   0  0  0  0  0  0  0  0  0  0  0  0
   -3.1360   14.9240   -0.7100 C   0  0  0  0  0  0  0  0  0  0  0  0
   -4.3170   14.8940    0.0610 C   0  0  0  0  0  0  0  0  0  0  0  0
   -5.6750   15.0280   -1.9160 C   0  0  0  0  0  0  0  0  0  0  0  0
   -5.5800   14.9330   -0.5230 C   0  0  0  0  0  0  0  0  0  0  0  0
   -4.5470   14.7980    1.7590 S   0  0  0  0  0  0  0  0  0  0  0  0
   -6.2820   14.7510    1.5900 C   0  0  0  0  0  0  0  0  0  0  0  0
   -6.6570   14.8590    0.3400 N   0  0  0  0  0  0  0  0  0  0  0  0
   -7.1900   14.5590    2.6890 N   0  0  0  0  0  0  0  0  0  0  0  0
   -8.1440   15.4710    3.2570 C   0  0  0  0  0  0  0  0  0  0  0  0
   -7.7830   13.2420    2.7150 C   0  0  0  0  0  0  0  0  0  0  0  0
   -8.8880   16.1760    2.5580 O   0  0  0  0  0  0  0  0  0  0  0  0
   -8.2890   15.5160    4.7220 C   0  0  0  0  0  0  0  0  0  0  0  0
   -7.8640   14.4570    5.4860 O   0  0  0  0  0  0  0  0  0  0  0  0
   -8.8120   16.4840    5.5670 C   0  0  0  0  0  0  0  0  0  0  0  0
   -8.6940   15.9830    6.8910 C   0  0  0  0  0  0  0  0  0  0  0  0
   -8.1080   14.7470    6.7840 C   0  0  0  0  0  0  0  0  0  0  0  0
  1  2  1  0
  2  3  2  0
  2  4  1  0
  4  5  2  0
  3  6  1  0
  5  7  1  0
  6  7  2  0
  5  8  1  0
  8  9  1  0
  7 10  1  0
  9 10  2  0
  9 11  1  0
 11 12  1  0
 11 13  1  0
 12 14  2  0
 12 15  1  0
 15 16  1  0
 15 17  2  0
 17 18  1  0
 16 19  1  0
 18 19  2  0
M  END
