mac-x0555-mac-x0337
     RDKit          3D

 22 24  0  0  0  0  0  0  0  0999 V2000
   -7.4790   14.3500    3.0270 N   0  0  0  0  0  0  0  0  0  0  0  0
   -7.2420   14.5090    1.6660 C   0  0  0  0  0  0  0  0  0  0  0  0
   -8.1950   14.3760    0.6610 C   0  0  0  0  0  0  0  0  0  0  0  0
   -5.9720   14.8250    1.2460 C   0  0  0  0  0  0  0  0  0  0  0  0
   -5.6860   14.9860   -0.1110 C   0  0  0  0  0  0  0  0  0  0  0  0
   -7.9520   14.5260   -0.6660 N   0  0  0  0  0  0  0  0  0  0  0  0
   -6.7030   14.8210   -1.0380 C   0  0  0  0  0  0  0  0  0  0  0  0
   -4.4390   15.2950   -0.5790 C   0  0  0  0  0  0  0  0  0  0  0  0
   -3.4210   15.4460    0.2740 N   0  0  0  0  0  0  0  0  0  0  0  0
   -6.3980   14.9610   -2.3840 C   0  0  0  0  0  0  0  0  0  0  0  0
   -4.1240   15.4370   -1.9070 C   0  0  0  0  0  0  0  0  0  0  0  0
   -2.4180   14.2960   -0.3610 S   0  0  0  0  0  0  0  0  0  0  0  0
   -5.1060   15.2610   -2.8230 C   0  0  0  0  0  0  0  0  0  0  0  0
   -1.9310   14.8870   -1.5900 O   0  0  0  0  0  0  0  0  0  0  0  0
   -1.5420   13.8590    0.6780 O   0  0  0  0  0  0  0  0  0  0  0  0
   -3.5320   12.9670   -0.8660 C   0  0  0  0  0  0  0  0  0  0  0  0
   -3.1840   12.2030   -1.9850 C   0  0  0  0  0  0  0  0  0  0  0  0
   -4.7230   12.6720   -0.1750 C   0  0  0  0  0  0  0  0  0  0  0  0
   -4.0050   11.1560   -2.4050 C   0  0  0  0  0  0  0  0  0  0  0  0
   -5.5440   11.6220   -0.6070 C   0  0  0  0  0  0  0  0  0  0  0  0
   -5.1880   10.8530   -1.7240 C   0  0  0  0  0  0  0  0  0  0  0  0
   -6.0570    9.7180   -2.1820 C   0  0  0  0  0  0  0  0  0  0  0  0
  1  2  1  0
  2  3  2  0
  2  4  1  0
  4  5  2  0
  3  6  1  0
  5  7  1  0
  6  7  2  0
  5  8  1  0
  8  9  1  0
  7 10  1  0
  8 11  2  0
 12  9  1  0
 10 13  2  0
 11 13  1  0
 12 14  2  0
 12 15  2  0
 12 16  1  0
 16 17  2  0
 16 18  1  0
 17 19  1  0
 18 20  2  0
 19 21  2  0
 20 21  1  0
 21 22  1  0
M  END
