mac-x0398-mac-x0204
     RDKit          3D

 22 23  0  0  0  0  0  0  0  0999 V2000
   -6.4830   14.8370    2.1920 N   0  0  0  0  0  0  0  0  0  0  0  0
   -5.7140   14.9000    1.0300 C   0  0  0  0  0  0  0  0  0  0  0  0
   -4.3170   14.8880    1.1140 C   0  0  0  0  0  0  0  0  0  0  0  0
   -6.3320   14.9740   -0.2210 C   0  0  0  0  0  0  0  0  0  0  0  0
   -5.5610   15.0320   -1.3760 C   0  0  0  0  0  0  0  0  0  0  0  0
   -3.5480   14.9420   -0.0350 C   0  0  0  0  0  0  0  0  0  0  0  0
   -6.1740   15.1070   -2.5980 O   0  0  0  0  0  0  0  0  0  0  0  0
   -4.1760   15.0110   -1.2770 C   0  0  0  0  0  0  0  0  0  0  0  0
   -3.3140   15.0570   -2.4450 C   0  0  0  0  0  0  0  0  0  0  0  0
   -3.7140   14.8860   -3.5860 O   0  0  0  0  0  0  0  0  0  0  0  0
   -2.0420   15.3320   -2.0730 O   0  0  0  0  0  0  0  0  0  0  0  0
   -1.1380   14.3320   -1.5290 C   0  0  0  0  0  0  0  0  0  0  0  0
   -0.1290   14.0010   -2.6460 C   0  0  0  0  0  0  0  0  0  0  0  0
    0.5280   12.7540   -2.5140 O   0  0  0  0  0  0  0  0  0  0  0  0
    0.8470   15.0350   -2.7460 O   0  0  0  0  0  0  0  0  0  0  0  0
   -1.0570   13.9690   -3.8360 C   0  0  0  0  0  0  0  0  0  0  0  0
   -1.4960   15.1600   -4.4390 C   0  0  0  0  0  0  0  0  0  0  0  0
   -1.5320   12.7750   -4.3720 C   0  0  0  0  0  0  0  0  0  0  0  0
   -2.3700   15.1090   -5.5100 C   0  0  0  0  0  0  0  0  0  0  0  0
   -2.3840   12.6940   -5.4250 N   0  0  0  0  0  0  0  0  0  0  0  0
   -2.7900   16.2860   -6.0730 O   0  0  0  0  0  0  0  0  0  0  0  0
   -2.7840   13.8660   -5.9660 C   0  0  0  0  0  0  0  0  0  0  0  0
  1  2  1  0
  2  3  2  0
  2  4  1  0
  4  5  2  0
  3  6  1  0
  5  7  1  0
  5  8  1  0
  6  8  2  0
  8  9  1  0
  9 10  2  0
  9 11  1  0
 11 12  1  0
 12 13  1  0
 13 14  1  0
 13 15  1  0
 13 16  1  0
 16 17  2  0
 16 18  1  0
 17 19  1  0
 18 20  2  0
 19 21  1  0
 19 22  2  0
 20 22  1  0
M  END
