mac-x0223-diamond-x0253_0_A
     RDKit          3D

 23 24  0  0  0  0  0  0  0  0999 V2000
    1.2240   18.3900   -5.7510 C   0  0  0  0  0  0  0  0  0  0  0  0
    0.2380   18.1730   -4.7690 O   0  0  0  0  0  0  0  0  0  0  0  0
   -0.2610   16.9090   -4.7350 C   0  0  0  0  0  0  0  0  0  0  0  0
   -1.6430   16.8690   -4.8090 C   0  0  0  0  0  0  0  0  0  0  0  0
    0.4570   15.7180   -4.6350 C   0  0  0  0  0  0  0  0  0  0  0  0
   -2.3300   18.0370   -4.8980 O   0  0  0  0  0  0  0  0  0  0  0  0
   -2.3370   15.6780   -4.7870 C   0  0  0  0  0  0  0  0  0  0  0  0
   -0.2170   14.4710   -4.6060 C   0  0  0  0  0  0  0  0  0  0  0  0
    0.5430   13.1480   -4.4850 C   0  0  1  0  0  0  0  0  0  0  0  0
   -1.6250   14.4860   -4.6860 C   0  0  0  0  0  0  0  0  0  0  0  0
    0.5070   12.4750   -3.0980 C   0  0  0  0  0  0  0  0  0  0  0  0
    0.2400   12.1590   -5.5370 N   0  0  0  0  0  0  0  0  0  0  0  0
    0.0920   11.3460   -2.8740 O   0  0  0  0  0  0  0  0  0  0  0  0
    0.9590   13.2140   -2.0680 O   0  0  0  0  0  0  0  0  0  0  0  0
    1.0350   11.7260   -6.5690 C   0  0  0  0  0  0  0  0  0  0  0  0
    2.1950   12.0940   -6.6070 O   0  0  0  0  0  0  0  0  0  0  0  0
    0.4790   10.7980   -7.5830 C   0  0  0  0  0  0  0  0  0  0  0  0
   -0.4880    9.8840   -7.1530 C   0  0  0  0  0  0  0  0  0  0  0  0
    0.8770   10.8010   -8.9260 C   0  0  0  0  0  0  0  0  0  0  0  0
   -1.0580    8.9810   -8.0550 C   0  0  0  0  0  0  0  0  0  0  0  0
    0.3120    9.9040   -9.8250 C   0  0  0  0  0  0  0  0  0  0  0  0
   -2.0970    8.0070   -7.5800 C   0  0  0  0  0  0  0  0  0  0  0  0
   -0.6540    8.9960   -9.3940 C   0  0  0  0  0  0  0  0  0  0  0  0
  1  2  1  0
  2  3  1  0
  3  4  2  0
  3  5  1  0
  4  6  1  0
  4  7  1  0
  5  8  2  0
  8  9  1  0
  7 10  2  0
  8 10  1  0
  9 11  1  0
  9 12  1  6
 11 13  2  0
 11 14  1  0
 12 15  1  0
 15 16  2  0
 15 17  1  0
 17 18  2  0
 17 19  1  0
 18 20  1  0
 19 21  2  0
 20 22  1  0
 20 23  2  0
 21 23  1  0
M  END
