mac-x0361-mac-x0417
     RDKit          3D

 25 27  0  0  0  0  0  0  0  0999 V2000
   -6.1790   14.7590    1.6150 N   0  0  0  0  0  0  0  0  0  0  0  0
   -6.4900   14.7730    0.2850 C   0  0  0  0  0  0  0  0  0  0  0  0
   -7.6550   14.6990   -0.0810 O   0  0  0  0  0  0  0  0  0  0  0  0
   -5.3620   14.8770   -0.6810 C   0  0  0  0  0  0  0  0  0  0  0  0
   -4.0620   14.7800   -0.1780 C   0  0  0  0  0  0  0  0  0  0  0  0
   -5.5560   15.0610   -2.0530 C   0  0  0  0  0  0  0  0  0  0  0  0
   -2.9610   14.8600   -1.0370 C   0  0  0  0  0  0  0  0  0  0  0  0
   -4.4480   15.1380   -2.9030 C   0  0  0  0  0  0  0  0  0  0  0  0
   -3.1490   15.0380   -2.4070 C   0  0  0  0  0  0  0  0  0  0  0  0
   -2.1660   15.1280   -3.3530 O   0  0  0  0  0  0  0  0  0  0  0  0
   -1.1410   14.1270   -3.3600 C   0  0  0  0  0  0  0  0  0  0  0  0
   -0.6000   13.8190   -4.7640 C   0  0  0  0  0  0  0  0  0  0  0  0
    0.5190   12.7510   -4.7970 C   0  0  1  0  0  0  0  0  0  0  0  0
    0.7110   12.1100   -3.4230 C   0  0  0  0  0  0  0  0  0  0  0  0
    0.3490   11.7250   -5.8800 C   0  0  0  0  0  0  0  0  0  0  0  0
    1.1880   12.9060   -2.4420 O   0  0  0  0  0  0  0  0  0  0  0  0
    0.4640   10.9300   -3.2020 O   0  0  0  0  0  0  0  0  0  0  0  0
    1.3050   11.6020   -6.8050 N   0  0  0  0  0  0  0  0  0  0  0  0
   -0.7080   10.8020   -6.1030 C   0  0  0  0  0  0  0  0  0  0  0  0
    0.8830   10.5970   -7.6600 O   0  0  0  0  0  0  0  0  0  0  0  0
   -0.3140   10.1170   -7.2410 C   0  0  0  0  0  0  0  0  0  0  0  0
   -1.9310   10.4550   -5.5040 C   0  0  0  0  0  0  0  0  0  0  0  0
   -1.0470    9.0990   -7.8430 C   0  0  0  0  0  0  0  0  0  0  0  0
   -2.6960    9.4330   -6.0820 C   0  0  0  0  0  0  0  0  0  0  0  0
   -2.2620    8.7660   -7.2320 C   0  0  0  0  0  0  0  0  0  0  0  0
  1  2  1  0
  2  3  2  0
  2  4  1  0
  4  5  2  0
  4  6  1  0
  5  7  1  0
  6  8  2  0
  7  9  2  0
  8  9  1  0
  9 10  1  0
 10 11  1  0
 11 12  1  0
 13 12  1  1
 13 14  1  0
 13 15  1  0
 14 16  1  0
 14 17  2  0
 15 18  2  0
 15 19  1  0
 18 20  1  0
 19 21  2  0
 20 21  1  0
 19 22  1  0
 21 23  1  0
 22 24  2  0
 23 25  2  0
 24 25  1  0
M  END
