mac-x0345-diamond-x0967_0_A
     RDKit          3D

 13 14  0  0  0  0  0  0  0  0999 V2000
   -6.9660   12.7420    0.0670 C   0  0  0  0  0  0  0  0  0  0  0  0
   -6.6510   14.2100   -0.2910 C   0  0  2  0  0  0  0  0  0  0  0  0
   -6.2500   14.2210   -1.7060 N   0  0  0  0  0  0  0  0  0  0  0  0
   -5.6110   14.7800    0.7380 C   0  0  1  0  0  0  0  0  0  0  0  0
   -7.9980   14.7730   -0.2120 N   0  0  0  0  0  0  0  0  0  0  0  0
   -4.3300   13.3820    1.3000 Br  0  0  0  0  0  0  0  0  0  0  0  0
   -4.5990   15.7340    0.1730 C   0  0  0  0  0  0  0  0  0  0  0  0
   -5.2480   14.9440   -2.0600 C   0  0  0  0  0  0  0  0  0  0  0  0
   -6.2370   14.8730    2.0950 C   0  0  0  0  0  0  0  0  0  0  0  0
   -8.3680   15.0900    0.9660 C   0  0  0  0  0  0  0  0  0  0  0  0
   -4.9520   14.9170   -3.3870 N   0  0  0  0  0  0  0  0  0  0  0  0
   -4.4200   15.7910   -1.1560 C   0  0  0  0  0  0  0  0  0  0  0  0
   -7.5710   14.9940    2.2200 C   0  0  0  0  0  0  0  0  0  0  0  0
  2  1  1  1
  2  3  1  0
  2  4  1  0
  2  5  1  0
  4  6  1  1
  4  7  1  0
  3  8  2  0
  4  9  1  0
  5 10  2  0
  8 11  1  0
  7 12  2  0
  8 12  1  0
  9 13  2  0
 10 13  1  0
M  END
