mac-x0284-diamond-x0895_0_A
     RDKit          3D

 17 18  0  0  0  0  0  0  0  0999 V2000
   -1.5320   15.8970    0.1850 C   0  0  0  0  0  0  0  0  0  0  0  0
   -1.9950   15.3180   -1.1440 C   0  0  1  0  0  0  0  0  0  0  0  0
   -3.4330   15.0450   -1.3300 C   0  0  0  0  0  0  0  0  0  0  0  0
   -1.4940   16.0490   -2.3240 C   0  0  0  0  0  0  0  0  0  0  0  0
   -1.2320   14.9910   -3.3210 C   0  0  1  0  0  0  0  0  0  0  0  0
   -3.7840   14.6490   -2.7570 C   0  0  0  0  0  0  0  0  0  0  0  0
   -4.0300   15.1790   -0.1940 C   0  0  0  0  0  0  0  0  0  0  0  0
   -0.0300   14.2070   -2.8270 C   0  0  0  0  0  0  0  0  0  0  0  0
   -2.5100   14.1520   -3.5210 C   0  0  1  0  0  0  0  0  0  0  0  0
   -5.2240   15.0400    0.4220 N   0  0  0  0  0  0  0  0  0  0  0  0
   -3.1920   15.5990    0.7440 N   0  0  0  0  0  0  0  0  0  0  0  0
   -2.7540   14.2100   -4.9310 O   0  0  0  0  0  0  0  0  0  0  0  0
    0.3650   14.1600   -1.6670 O   0  0  0  0  0  0  0  0  0  0  0  0
    0.6070   13.5510   -3.8110 O   0  0  0  0  0  0  0  0  0  0  0  0
   -4.7990   14.5520    1.7860 C   0  0  0  0  0  0  0  0  0  0  0  0
   -3.2670   14.6970    1.7000 C   0  0  0  0  0  0  0  0  0  0  0  0
   -2.3140   14.1900    2.2540 O   0  0  0  0  0  0  0  0  0  0  0  0
  2  1  1  1
  2  3  1  0
  2  4  1  0
  4  5  1  0
  3  6  1  0
  3  7  2  3
  5  8  1  1
  5  9  1  0
  6  9  1  0
  7 10  1  0
  7 11  1  0
  9 12  1  6
  8 13  2  0
  8 14  1  0
 10 15  1  0
 11 16  1  0
 15 16  1  0
 16 17  2  0
M  END
