mac-x0255-mac-x0139
     RDKit          3D

 25 28  0  0  0  0  0  0  0  0999 V2000
    2.0390   13.1110   -2.4160 O   0  0  0  0  0  0  0  0  0  0  0  0
    1.1000   12.3100   -2.9370 C   0  0  0  0  0  0  0  0  0  0  0  0
    1.0720   11.1310   -2.6640 O   0  0  0  0  0  0  0  0  0  0  0  0
    0.0780   12.9610   -3.7960 C   0  0  1  0  0  0  0  0  0  0  0  0
   -1.1660   13.0440   -2.9140 C   0  0  0  0  0  0  0  0  0  0  0  0
    0.0510   14.3330   -4.3460 C   0  0  0  0  0  0  0  0  0  0  0  0
   -1.5040   14.3930   -2.3720 N   0  0  0  0  0  0  0  0  0  0  0  0
    0.9140   15.4010   -4.5500 C   0  0  0  0  0  0  0  0  0  0  0  0
   -1.5240   14.6710   -4.8420 S   0  0  0  0  0  0  0  0  0  0  0  0
   -2.6530   15.0370   -3.0440 C   0  0  0  0  0  0  0  0  0  0  0  0
    0.1940   16.5350   -5.1080 C   0  0  0  0  0  0  0  0  0  0  0  0
   -1.1580   16.2370   -5.2940 C   0  0  0  0  0  0  0  0  0  0  0  0
   -1.4910   14.6280   -0.9990 C   0  0  0  0  0  0  0  0  0  0  0  0
    0.5890   17.8380   -5.4790 C   0  0  0  0  0  0  0  0  0  0  0  0
   -2.1010   17.1270   -5.7970 C   0  0  0  0  0  0  0  0  0  0  0  0
   -2.6550   14.8730   -0.3850 C   0  0  0  0  0  0  0  0  0  0  0  0
   -0.2800   14.6200   -0.2890 N   0  0  0  0  0  0  0  0  0  0  0  0
   -0.3560   18.7390   -5.9950 C   0  0  0  0  0  0  0  0  0  0  0  0
   -1.6860   18.3900   -6.1480 C   0  0  0  0  0  0  0  0  0  0  0  0
   -2.6450   15.1230    1.0570 C   0  0  0  0  0  0  0  0  0  0  0  0
   -0.3430   14.8160    0.9860 C   0  0  0  0  0  0  0  0  0  0  0  0
   -4.0300   14.9920   -0.7350 C   0  0  0  0  0  0  0  0  0  0  0  0
   -1.4740   15.0180    1.7000 N   0  0  0  0  0  0  0  0  0  0  0  0
   -3.8200   15.4280    1.5040 N   0  0  0  0  0  0  0  0  0  0  0  0
   -4.6390   15.3270    0.3980 C   0  0  0  0  0  0  0  0  0  0  0  0
  1  2  1  0
  2  3  2  0
  2  4  1  0
  4  5  1  1
  4  6  1  0
  5  7  1  0
  6  8  2  0
  6  9  1  0
  7 10  1  0
  8 11  1  0
  9 12  1  0
 11 12  2  0
  7 13  1  0
 11 14  1  0
 12 15  1  0
 13 16  2  0
 13 17  1  0
 14 18  2  0
 15 19  2  0
 18 19  1  0
 16 20  1  0
 17 21  2  0
 16 22  1  0
 20 23  1  0
 21 23  1  0
 20 24  2  0
 22 25  2  0
 24 25  1  0
M  END
