mac-x0455-diamond-x0524_0_A
     RDKit          3D

 29 31  0  0  0  0  0  0  0  0999 V2000
   -2.3280   14.2520   -2.3640 C   0  0  0  0  0  0  0  0  0  0  0  0
   -1.0750   14.2850   -3.2450 C   0  0  1  0  0  0  0  0  0  0  0  0
   -1.1180   15.5320   -3.9540 O   0  0  0  0  0  0  0  0  0  0  0  0
    0.1590   14.2560   -2.3120 C   0  0  0  0  0  0  0  0  0  0  0  0
   -0.9420   13.2070   -4.3030 C   0  0  0  0  0  0  0  0  0  0  0  0
    0.7210   15.2680   -1.9300 O   0  0  0  0  0  0  0  0  0  0  0  0
    0.5900   13.0300   -1.9520 O   0  0  0  0  0  0  0  0  0  0  0  0
   -1.9800   12.2690   -4.5210 C   0  0  0  0  0  0  0  0  0  0  0  0
    0.2080   13.1190   -5.0900 C   0  0  0  0  0  0  0  0  0  0  0  0
   -1.8480   11.2830   -5.5060 C   0  0  0  0  0  0  0  0  0  0  0  0
    0.3310   12.1450   -6.0570 C   0  0  0  0  0  0  0  0  0  0  0  0
   -0.6800   11.2300   -6.2760 C   0  0  0  0  0  0  0  0  0  0  0  0
   -0.4270   10.3210   -7.2790 N   0  0  0  0  0  0  0  0  0  0  0  0
   -0.8910    9.1260   -7.3240 C   0  0  0  0  0  0  0  0  0  0  0  0
   -0.5740    8.2720   -8.3370 N   0  0  0  0  0  0  0  0  0  0  0  0
   -1.8070    8.7070   -6.1910 C   0  0  0  0  0  0  0  0  0  0  0  0
    0.5270    8.3490   -9.2040 C   0  0  0  0  0  0  0  0  0  0  0  0
    1.7040    7.6330   -9.0250 C   0  0  0  0  0  0  0  0  0  0  0  0
    0.4380    9.1950  -10.3180 C   0  0  0  0  0  0  0  0  0  0  0  0
    2.7660    7.7460   -9.9320 C   0  0  0  0  0  0  0  0  0  0  0  0
    1.4980    9.3070  -11.2250 C   0  0  0  0  0  0  0  0  0  0  0  0
    2.6800    8.5810  -11.0470 C   0  0  0  0  0  0  0  0  0  0  0  0
    3.7210    8.7080  -11.9760 N   0  0  0  0  0  0  0  0  0  0  0  0
    3.9560    9.5860  -13.0460 C   0  0  0  0  0  0  0  0  0  0  0  0
    3.2040   10.7390  -13.2930 C   0  0  0  0  0  0  0  0  0  0  0  0
    5.0100    9.2870  -13.9170 C   0  0  0  0  0  0  0  0  0  0  0  0
    3.4950   11.5700  -14.3730 C   0  0  0  0  0  0  0  0  0  0  0  0
    5.3060   10.1140  -15.0000 C   0  0  0  0  0  0  0  0  0  0  0  0
    4.5470   11.2570  -15.2280 C   0  0  0  0  0  0  0  0  0  0  0  0
  2  1  1  1
  2  3  1  0
  2  4  1  0
  2  5  1  0
  4  6  2  0
  4  7  1  0
  5  8  2  0
  5  9  1  0
  8 10  1  0
  9 11  2  0
 10 12  2  0
 11 12  1  0
 12 13  1  0
 13 14  2  3
 14 15  1  0
 14 16  1  0
 15 17  1  0
 17 18  2  0
 17 19  1  0
 18 20  1  0
 19 21  2  0
 20 22  2  0
 21 22  1  0
 22 23  1  0
 23 24  1  0
 24 25  2  0
 24 26  1  0
 25 27  1  0
 26 28  2  0
 27 29  2  0
 28 29  1  0
M  END
