mac-x0178-mac-x0567
     RDKit          3D

 24 26  0  0  0  0  0  0  0  0999 V2000
   -0.3150   18.1310   -6.4470 N   0  0  0  0  0  0  0  0  0  0  0  0
   -1.6940   17.5400   -5.6970 S   0  0  0  0  0  0  0  0  0  0  0  0
   -2.6290   17.1430   -6.7220 O   0  0  0  0  0  0  0  0  0  0  0  0
   -2.0080   18.5330   -4.7010 O   0  0  0  0  0  0  0  0  0  0  0  0
   -1.0680   16.0960   -4.8710 C   0  0  0  0  0  0  0  0  0  0  0  0
    0.1590   16.1620   -4.1970 C   0  0  0  0  0  0  0  0  0  0  0  0
   -1.8120   14.9070   -4.8950 C   0  0  0  0  0  0  0  0  0  0  0  0
    0.6360   15.0340   -3.5360 C   0  0  0  0  0  0  0  0  0  0  0  0
   -1.3310   13.7790   -4.2320 C   0  0  0  0  0  0  0  0  0  0  0  0
   -0.1130   13.8460   -3.5490 C   0  0  0  0  0  0  0  0  0  0  0  0
    0.3740   12.6730   -2.8310 C   0  0  0  0  0  0  0  0  0  0  0  0
    0.7830   12.6050   -1.6330 N   0  0  0  0  0  0  0  0  0  0  0  0
    0.3500   11.5630   -3.5760 O   0  0  0  0  0  0  0  0  0  0  0  0
    0.7590   13.8770   -0.9470 C   0  0  0  0  0  0  0  0  0  0  0  0
    0.1430   13.8340    0.3400 N   0  0  0  0  0  0  0  0  0  0  0  0
   -1.1280   14.2670    0.5460 C   0  0  0  0  0  0  0  0  0  0  0  0
   -1.6320   14.3980    1.7890 N   0  0  0  0  0  0  0  0  0  0  0  0
   -2.1710   14.6510   -0.2680 C   0  0  0  0  0  0  0  0  0  0  0  0
   -2.9020   14.8320    1.8610 N   0  0  0  0  0  0  0  0  0  0  0  0
   -3.2700   15.0020    0.5930 C   0  0  0  0  0  0  0  0  0  0  0  0
   -2.1830   14.6990   -1.6580 C   0  0  0  0  0  0  0  0  0  0  0  0
   -4.4940   15.4420    0.0720 C   0  0  0  0  0  0  0  0  0  0  0  0
   -3.4280   15.1460   -2.1600 C   0  0  0  0  0  0  0  0  0  0  0  0
   -4.5360   15.5030   -1.3340 C   0  0  0  0  0  0  0  0  0  0  0  0
  2  1  1  0
  2  3  2  0
  2  4  2  0
  2  5  1  0
  5  6  2  0
  5  7  1  0
  6  8  1  0
  7  9  2  0
  8 10  2  0
  9 10  1  0
 10 11  1  0
 11 12  2  3
 11 13  1  0
 12 14  1  0
 14 15  1  0
 15 16  1  0
 16 17  1  0
 16 18  2  0
 17 19  1  0
 18 20  1  0
 19 20  2  0
 18 21  1  0
 20 22  1  0
 21 23  2  0
 22 24  2  0
 23 24  1  0
M  END
