mac-x0223-mac-x0224
     RDKit          3D

 22 23  0  0  0  0  0  0  0  0999 V2000
    1.2290   18.5270   -5.7100 C   0  0  0  0  0  0  0  0  0  0  0  0
    0.3200   18.3550   -4.6450 O   0  0  0  0  0  0  0  0  0  0  0  0
   -0.2170   17.1210   -4.6430 C   0  0  0  0  0  0  0  0  0  0  0  0
   -1.5820   17.1080   -4.8890 C   0  0  0  0  0  0  0  0  0  0  0  0
    0.4640   15.9380   -4.4210 C   0  0  0  0  0  0  0  0  0  0  0  0
   -2.2450   18.2790   -5.0660 O   0  0  0  0  0  0  0  0  0  0  0  0
   -2.2930   15.9360   -4.9460 C   0  0  0  0  0  0  0  0  0  0  0  0
   -0.2430   14.7340   -4.4530 C   0  0  0  0  0  0  0  0  0  0  0  0
    0.4310   13.4180   -4.1760 C   0  0  0  0  0  0  0  0  0  0  0  0
   -1.6160   14.7470   -4.7310 C   0  0  0  0  0  0  0  0  0  0  0  0
   -0.0160   12.9140   -2.7610 C   0  0  0  0  0  0  0  0  0  0  0  0
   -0.2590   11.5150   -2.7200 O   0  0  0  0  0  0  0  0  0  0  0  0
    1.0160   13.1330   -1.8110 O   0  0  0  0  0  0  0  0  0  0  0  0
   -1.2940   13.6860   -2.2950 C   0  0  0  0  0  0  0  0  0  0  0  0
   -1.5120   14.0230   -0.9360 C   0  0  0  0  0  0  0  0  0  0  0  0
   -2.3080   14.0880   -3.1830 C   0  0  0  0  0  0  0  0  0  0  0  0
   -2.2370   13.8180   -4.5140 O   0  0  0  0  0  0  0  0  0  0  0  0
   -2.6710   14.7120   -0.5180 C   0  0  0  0  0  0  0  0  0  0  0  0
   -3.4530   14.7800   -2.7800 C   0  0  0  0  0  0  0  0  0  0  0  0
   -2.8650   15.0710    1.2110 S   0  0  0  0  0  0  0  0  0  0  0  0
   -3.6370   15.0930   -1.4460 C   0  0  0  0  0  0  0  0  0  0  0  0
   -4.6650   15.2160    1.3080 C   0  0  0  0  0  0  0  0  0  0  0  0
  1  2  1  0
  2  3  1  0
  3  4  2  0
  3  5  1  0
  4  6  1  0
  4  7  1  0
  5  8  2  0
  8  9  1  0
  7 10  2  0
  8 10  1  0
  9 11  1  0
 11 12  1  0
 11 13  1  0
 11 14  1  0
 14 15  2  0
 14 16  1  0
 16 17  1  0
 15 18  1  0
 16 19  2  0
 18 20  1  0
 18 21  2  0
 19 21  1  0
 20 22  1  0
M  END
