mac-x0527-mac-x0396
     RDKit          3D

 24 26  0  0  0  0  0  0  0  0999 V2000
   -3.4220   15.7950   -2.9660 O   0  0  0  0  0  0  0  0  0  0  0  0
   -3.0370   14.6910   -2.1080 C   0  0  2  0  0  0  0  0  0  0  0  0
   -1.6450   14.3230   -2.4320 N   0  0  0  0  0  0  0  0  0  0  0  0
   -4.1810   13.5970   -2.1690 C   0  0  2  0  0  0  0  0  0  0  0  0
   -3.3230   15.0490   -0.6940 C   0  0  0  0  0  0  0  0  0  0  0  0
   -1.1820   14.5220   -3.8100 C   0  0  0  0  0  0  0  0  0  0  0  0
   -4.6330   13.3840   -3.5380 N   0  0  0  0  0  0  0  0  0  0  0  0
   -4.4520   15.7380   -0.3670 C   0  0  0  0  0  0  0  0  0  0  0  0
   -2.4310   14.6070    0.2250 N   0  0  0  0  0  0  0  0  0  0  0  0
   -5.4150   13.9290   -1.3000 C   0  0  0  0  0  0  0  0  0  0  0  0
   -0.9290   13.2410   -4.5750 C   0  0  0  0  0  0  0  0  0  0  0  0
   -4.7540   16.0040    0.8940 N   0  0  0  0  0  0  0  0  0  0  0  0
   -2.7590   14.8880    1.4900 C   0  0  0  0  0  0  0  0  0  0  0  0
   -6.5400   14.5780   -1.8050 C   0  0  0  0  0  0  0  0  0  0  0  0
   -5.4680   13.5890    0.0750 C   0  0  0  0  0  0  0  0  0  0  0  0
   -1.7390   12.1190   -4.3500 C   0  0  0  0  0  0  0  0  0  0  0  0
    0.1100   13.1490   -5.5160 C   0  0  0  0  0  0  0  0  0  0  0  0
   -3.9030   15.5710    1.8160 C   0  0  0  0  0  0  0  0  0  0  0  0
   -7.6470   14.8890   -1.0790 N   0  0  0  0  0  0  0  0  0  0  0  0
   -6.5940   13.9010    0.8430 C   0  0  0  0  0  0  0  0  0  0  0  0
   -1.5180   10.9270   -5.0500 C   0  0  0  0  0  0  0  0  0  0  0  0
    0.3300   11.9560   -6.2140 C   0  0  0  0  0  0  0  0  0  0  0  0
   -7.6470   14.5440    0.2220 C   0  0  0  0  0  0  0  0  0  0  0  0
   -0.4850   10.8500   -5.9790 C   0  0  0  0  0  0  0  0  0  0  0  0
  2  1  1  6
  2  3  1  0
  2  4  1  0
  2  5  1  0
  3  6  1  0
  4  7  1  6
  5  8  2  0
  5  9  1  0
  4 10  1  0
  6 11  1  0
  8 12  1  0
  9 13  2  0
 10 14  2  0
 10 15  1  0
 11 16  2  0
 11 17  1  0
 12 18  2  0
 13 18  1  0
 14 19  1  0
 15 20  2  0
 16 21  1  0
 17 22  2  0
 19 23  2  0
 20 23  1  0
 21 24  2  0
 22 24  1  0
M  END
