mac-x0131-mac-x0555
     RDKit          3D

 28 32  0  0  0  0  0  0  0  0999 V2000
   -3.2710   14.7250   -4.0630 C   0  0  0  0  0  0  0  0  0  0  0  0
   -2.6940   14.7260   -2.6790 C   0  0  0  0  0  0  0  0  0  0  0  0
   -3.3040   14.8190   -1.4530 C   0  0  0  0  0  0  0  0  0  0  0  0
   -1.3510   14.6360   -2.3940 N   0  0  0  0  0  0  0  0  0  0  0  0
   -0.2960   14.5100   -3.3700 C   0  0  0  0  0  0  0  0  0  0  0  0
   -2.3870   14.7980   -0.4150 C   0  0  0  0  0  0  0  0  0  0  0  0
   -1.1580   14.6800   -1.0190 C   0  0  0  0  0  0  0  0  0  0  0  0
   -4.6620   14.9570   -1.2660 C   0  0  0  0  0  0  0  0  0  0  0  0
   -2.4590   14.8760    0.9860 C   0  0  0  0  0  0  0  0  0  0  0  0
    0.0060   14.6280   -0.3680 N   0  0  0  0  0  0  0  0  0  0  0  0
   -0.2650   13.0720   -3.6650 C   0  0  0  0  0  0  0  0  0  0  0  0
   -5.3960   14.4600   -0.2150 C   0  0  0  0  0  0  0  0  0  0  0  0
   -5.1800   15.6660   -2.2200 C   0  0  0  0  0  0  0  0  0  0  0  0
   -3.6440   15.0220    1.7200 N   0  0  0  0  0  0  0  0  0  0  0  0
   -1.3260   14.8170    1.6640 N   0  0  0  0  0  0  0  0  0  0  0  0
   -0.1950   14.7070    0.9680 C   0  0  0  0  0  0  0  0  0  0  0  0
    0.6810   12.0750   -3.6200 C   0  0  0  0  0  0  0  0  0  0  0  0
   -1.4660   12.5640   -4.0730 O   0  0  0  0  0  0  0  0  0  0  0  0
   -6.7120   14.7760   -0.1520 C   0  0  0  0  0  0  0  0  0  0  0  0
   -4.8950   13.7180    0.7150 N   0  0  0  0  0  0  0  0  0  0  0  0
   -6.4740   15.9340   -2.1330 C   0  0  0  0  0  0  0  0  0  0  0  0
   -1.2890   11.2470   -4.2850 C   0  0  0  0  0  0  0  0  0  0  0  0
    0.0010   10.8940   -4.0190 C   0  0  0  0  0  0  0  0  0  0  0  0
   -7.5240   14.3650    0.8810 C   0  0  0  0  0  0  0  0  0  0  0  0
   -5.6920   13.3120    1.7030 C   0  0  0  0  0  0  0  0  0  0  0  0
   -7.2340   15.5150   -1.1220 C   0  0  0  0  0  0  0  0  0  0  0  0
   -7.0090   13.6090    1.8610 C   0  0  0  0  0  0  0  0  0  0  0  0
   -7.7460   13.1670    2.9430 N   0  0  0  0  0  0  0  0  0  0  0  0
  1  2  1  0
  2  3  2  0
  2  4  1  0
  4  5  1  0
  3  6  1  0
  4  7  1  0
  6  7  2  0
  3  8  1  0
  6  9  1  0
  7 10  1  0
  5 11  1  0
  8 12  1  0
  8 13  2  0
  9 14  1  0
  9 15  2  0
 10 16  2  0
 15 16  1  0
 11 17  2  0
 11 18  1  0
 12 19  2  0
 12 20  1  0
 13 21  1  0
 18 22  1  0
 17 23  1  0
 22 23  2  0
 19 24  1  0
 20 25  2  0
 19 26  1  0
 21 26  2  0
 24 27  2  0
 25 27  1  0
 27 28  1  0
M  END
