mac-x0123-mac-x0360
     RDKit          3D

 24 27  0  0  0  0  0  0  0  0999 V2000
   -3.9880   15.4230    1.1300 N   0  0  0  0  0  0  0  0  0  0  0  0
   -3.0460   14.2900    0.8810 S   0  0  1  0  0  0  0  0  0  0  0  0
   -2.1350   14.7210   -0.4630 N   0  0  0  0  0  0  0  0  0  0  0  0
   -5.1380   15.1310    0.2940 C   0  0  0  0  0  0  0  0  0  0  0  0
   -2.0380   13.8810    1.7970 O   0  0  0  0  0  0  0  0  0  0  0  0
   -4.9630   15.1310   -1.0910 N   0  0  0  0  0  0  0  0  0  0  0  0
   -6.3270   14.8090    0.8090 C   0  0  0  0  0  0  0  0  0  0  0  0
   -4.1930   13.0200    0.3470 C   0  0  0  0  0  0  0  0  0  0  0  0
   -6.0200   14.8340   -1.9460 C   0  0  0  0  0  0  0  0  0  0  0  0
   -7.3940   14.5390   -0.1810 C   0  0  0  0  0  0  0  0  0  0  0  0
   -6.8970   14.6380    2.1790 C   0  0  0  0  0  0  0  0  0  0  0  0
   -3.8280   15.3710   -1.8110 N   0  0  0  0  0  0  0  0  0  0  0  0
   -4.0230   12.3410   -0.8770 C   0  0  0  0  0  0  0  0  0  0  0  0
   -5.2850   12.7190    1.1650 C   0  0  0  0  0  0  0  0  0  0  0  0
   -7.2760   14.5510   -1.4750 N   0  0  0  0  0  0  0  0  0  0  0  0
   -8.6820   14.2530    0.5270 C   0  0  0  0  0  0  0  0  0  0  0  0
   -8.4010   14.7690    1.9440 C   0  0  0  0  0  0  0  0  0  0  0  0
   -5.5750   14.8760   -3.1850 N   0  0  0  0  0  0  0  0  0  0  0  0
   -4.2600   15.2000   -3.0510 C   0  0  0  0  0  0  0  0  0  0  0  0
   -4.9680   11.3720   -1.2540 C   0  0  0  0  0  0  0  0  0  0  0  0
   -6.2140   11.7580    0.7680 C   0  0  0  0  0  0  0  0  0  0  0  0
   -7.5640   11.3950    1.7710 Cl  0  0  0  0  0  0  0  0  0  0  0  0
   -4.7910   10.5090   -2.7380 Cl  0  0  0  0  0  0  0  0  0  0  0  0
   -6.0620   11.0840   -0.4400 C   0  0  0  0  0  0  0  0  0  0  0  0
  1  2  2  0
  2  3  1  6
  1  4  1  0
  2  5  2  0
  4  6  1  0
  4  7  2  0
  2  8  1  0
  6  9  1  0
  7 10  1  0
  7 11  1  0
  6 12  1  0
  8 13  2  0
  8 14  1  0
  9 15  1  0
 10 15  2  0
 10 16  1  0
 11 17  1  0
 16 17  1  0
  9 18  2  0
 12 19  2  0
 18 19  1  0
 13 20  1  0
 14 21  2  0
 21 22  1  0
 20 23  1  0
 20 24  2  0
 21 24  1  0
M  END
