mac-x0224-mac-x0345
     RDKit          3D

 19 20  0  0  0  0  0  0  0  0999 V2000
   -2.6750   14.6960    1.2650 S   0  0  0  0  0  0  0  0  0  0  0  0
   -2.4130   14.7030   -0.5130 C   0  0  0  0  0  0  0  0  0  0  0  0
   -3.4240   14.8180   -1.4810 C   0  0  0  0  0  0  0  0  0  0  0  0
   -1.1070   14.5750   -0.9270 C   0  0  0  0  0  0  0  0  0  0  0  0
   -0.7990   14.5630   -2.2810 C   0  0  0  0  0  0  0  0  0  0  0  0
   -3.1230   14.8250   -2.8460 C   0  0  0  0  0  0  0  0  0  0  0  0
   -4.7710   14.8980   -1.0470 C   0  0  0  0  0  0  0  0  0  0  0  0
    0.6090   14.3970   -2.6420 C   0  0  0  0  0  0  0  0  0  0  0  0
   -1.8040   14.6960   -3.2480 C   0  0  0  0  0  0  0  0  0  0  0  0
   -4.9220   14.8410    0.3190 C   0  0  0  0  0  0  0  0  0  0  0  0
   -5.9060   14.9920   -1.8540 C   0  0  0  0  0  0  0  0  0  0  0  0
   -1.5090   14.6920   -4.5790 O   0  0  0  0  0  0  0  0  0  0  0  0
    1.5760   14.4670   -1.9180 O   0  0  0  0  0  0  0  0  0  0  0  0
    0.7350   14.1240   -3.9500 O   0  0  0  0  0  0  0  0  0  0  0  0
   -5.8610   15.0470   -3.2460 N   0  0  0  0  0  0  0  0  0  0  0  0
   -6.1590   14.8570    0.8680 C   0  0  0  0  0  0  0  0  0  0  0  0
   -7.1340   15.0150   -1.3270 N   0  0  0  0  0  0  0  0  0  0  0  0
   -7.2410   14.9420    0.0180 C   0  0  0  0  0  0  0  0  0  0  0  0
   -8.6070   14.9560    0.6090 C   0  0  0  0  0  0  0  0  0  0  0  0
  1  2  1  0
  2  3  2  0
  2  4  1  0
  4  5  2  0
  3  6  1  0
  3  7  1  0
  5  8  1  0
  5  9  1  0
  6  9  2  0
  7 10  2  0
  7 11  1  0
  9 12  1  0
  8 13  2  0
  8 14  1  0
 11 15  1  0
 10 16  1  0
 11 17  2  0
 16 18  2  0
 17 18  1  0
 18 19  1  0
M  END
