mac-x0338-diamond-x1015_0_A
     RDKit          3D

 25 27  0  0  0  0  0  0  0  0999 V2000
   -4.1470   15.4080    1.9740 N   0  0  0  0  0  0  0  0  0  0  0  0
   -5.1550   15.1420    1.1070 C   0  0  0  0  0  0  0  0  0  0  0  0
   -6.3050   14.9800    1.5030 O   0  0  0  0  0  0  0  0  0  0  0  0
   -4.7980   15.0500   -0.3200 C   0  0  0  0  0  0  0  0  0  0  0  0
   -3.4980   14.8070   -0.6000 N   0  0  0  0  0  0  0  0  0  0  0  0
   -5.7490   15.1990   -1.3050 C   0  0  0  0  0  0  0  0  0  0  0  0
   -3.1840   14.7150   -1.9100 C   0  0  0  0  0  0  0  0  0  0  0  0
   -5.4470   15.1090   -2.6170 N   0  0  0  0  0  0  0  0  0  0  0  0
   -1.7570   14.4310   -2.2560 C   0  0  0  0  0  0  0  0  0  0  0  0
   -4.1470   14.8670   -2.8970 C   0  0  0  0  0  0  0  0  0  0  0  0
   -1.4300   14.3020   -3.7530 C   0  0  0  0  0  0  0  0  0  0  0  0
   -0.0490   13.6760   -3.9550 C   0  0  2  0  0  0  0  0  0  0  0  0
   -0.0670   12.2100   -3.9470 N   0  0  0  0  0  0  0  0  0  0  0  0
    0.7250   13.9140   -2.6630 C   0  0  0  0  0  0  0  0  0  0  0  0
    1.1480   14.9910   -2.2730 O   0  0  0  0  0  0  0  0  0  0  0  0
    0.3480   11.7070   -2.7090 C   0  0  0  0  0  0  0  0  0  0  0  0
    0.8760   12.7440   -2.0030 N   0  0  0  0  0  0  0  0  0  0  0  0
   -0.4800   11.4250   -5.0550 C   0  0  0  0  0  0  0  0  0  0  0  0
    0.2860   10.5560   -2.2700 O   0  0  0  0  0  0  0  0  0  0  0  0
    0.0790   11.6180   -6.3270 C   0  0  0  0  0  0  0  0  0  0  0  0
   -1.4520   10.4280   -4.9120 C   0  0  0  0  0  0  0  0  0  0  0  0
   -0.3200   10.8410   -7.4190 C   0  0  0  0  0  0  0  0  0  0  0  0
   -1.8570    9.6470   -6.0000 C   0  0  0  0  0  0  0  0  0  0  0  0
   -1.2880    9.8560   -7.2510 C   0  0  0  0  0  0  0  0  0  0  0  0
   -1.7890    8.8980   -8.5840 Cl  0  0  0  0  0  0  0  0  0  0  0  0
  1  2  1  0
  2  3  2  0
  2  4  1  0
  4  5  2  0
  4  6  1  0
  5  7  1  0
  6  8  2  0
  7  9  1  0
  7 10  2  0
  8 10  1  0
  9 11  1  0
 12 11  1  1
 12 13  1  0
 12 14  1  0
 14 15  2  0
 13 16  1  0
 14 17  1  0
 16 17  1  0
 13 18  1  0
 16 19  2  0
 18 20  2  0
 18 21  1  0
 20 22  1  0
 21 23  2  0
 22 24  2  0
 23 24  1  0
 24 25  1  0
M  END
