mac-x0277-mac-x0228
     RDKit          3D

 25 27  0  0  0  0  0  0  0  0999 V2000
   -1.2860   18.4630   -5.2880 Cl  0  0  0  0  0  0  0  0  0  0  0  0
   -0.5570   16.9230   -5.0310 C   0  0  0  0  0  0  0  0  0  0  0  0
   -1.2670   15.7330   -5.1570 C   0  0  0  0  0  0  0  0  0  0  0  0
    0.7960   16.8830   -4.6770 C   0  0  0  0  0  0  0  0  0  0  0  0
   -2.7290   15.5900   -5.5050 C   0  0  0  0  0  0  0  0  0  0  0  0
   -0.5900   14.5140   -4.9350 C   0  0  0  0  0  0  0  0  0  0  0  0
    1.4400   15.6570   -4.4520 C   0  0  0  0  0  0  0  0  0  0  0  0
   -3.1280   14.4030   -4.6650 C   0  0  0  0  0  0  0  0  0  0  0  0
    0.7510   14.4530   -4.5810 C   0  0  0  0  0  0  0  0  0  0  0  0
    1.4500   13.1320   -4.3370 C   0  0  0  0  0  0  0  0  0  0  0  0
   -2.0960   14.3780   -3.6280 N   0  0  0  0  0  0  0  0  0  0  0  0
    1.0760   12.4100   -3.0470 C   0  0  0  0  0  0  0  0  0  0  0  0
   -2.3730   14.5370   -2.4140 C   0  0  0  0  0  0  0  0  0  0  0  0
    0.3620   11.2720   -3.2700 O   0  0  0  0  0  0  0  0  0  0  0  0
    1.3480   12.7580   -1.9120 O   0  0  0  0  0  0  0  0  0  0  0  0
   -1.3970   14.5310   -1.4840 O   0  0  0  0  0  0  0  0  0  0  0  0
   -3.6870   14.7250   -1.8460 C   0  0  0  0  0  0  0  0  0  0  0  0
   -3.9310   14.4460   -0.5130 C   0  0  0  0  0  0  0  0  0  0  0  0
   -4.6920   15.1850   -2.7040 C   0  0  0  0  0  0  0  0  0  0  0  0
   -5.2240   14.6310   -0.0740 C   0  0  0  0  0  0  0  0  0  0  0  0
   -5.9840   15.3670   -2.2390 C   0  0  0  0  0  0  0  0  0  0  0  0
   -6.2230   15.0810   -0.9220 C   0  0  0  0  0  0  0  0  0  0  0  0
   -5.7910   14.4090    1.2620 C   0  0  0  0  0  0  0  0  0  0  0  0
   -7.4450   15.2020   -0.3270 O   0  0  0  0  0  0  0  0  0  0  0  0
   -7.2780   14.4940    0.9230 C   0  0  0  0  0  0  0  0  0  0  0  0
  1  2  1  0
  2  3  2  0
  2  4  1  0
  3  5  1  0
  3  6  1  0
  4  7  2  0
  5  8  1  0
  6  9  2  0
  7  9  1  0
  9 10  1  0
  8 11  1  0
 10 12  1  0
 11 13  2  3
 12 14  1  0
 12 15  2  0
 13 16  1  0
 13 17  1  0
 17 18  2  0
 17 19  1  0
 18 20  1  0
 19 21  2  0
 20 22  2  0
 21 22  1  0
 20 23  1  0
 22 24  1  0
 23 25  1  0
 24 25  1  0
M  END
