mac-x0385-mac-x0347
     RDKit          3D

 23 25  0  0  0  0  0  0  0  0999 V2000
   -1.9150   15.1240   -3.1500 C   0  0  0  0  0  0  0  0  0  0  0  0
   -1.4970   14.8200   -1.7470 C   0  0  0  0  0  0  0  0  0  0  0  0
   -0.1690   14.6680   -1.5070 C   0  0  0  0  0  0  0  0  0  0  0  0
   -2.3550   14.6760   -0.6430 C   0  0  0  0  0  0  0  0  0  0  0  0
   -1.9100   14.3960    0.5700 N   0  0  0  0  0  0  0  0  0  0  0  0
    0.3210   14.3890   -0.3220 N   0  0  0  0  0  0  0  0  0  0  0  0
   -3.7800   14.8250   -0.8610 C   0  0  0  0  0  0  0  0  0  0  0  0
   -0.5810   14.2600    0.6510 C   0  0  0  0  0  0  0  0  0  0  0  0
   -3.9720   14.6270   -2.1630 C   0  0  0  0  0  0  0  0  0  0  0  0
   -4.8950   15.1080   -0.0600 C   0  0  0  0  0  0  0  0  0  0  0  0
   -0.0870   13.9170    1.9590 C   0  0  0  0  0  0  0  0  0  0  0  0
   -6.1670   15.1680   -0.6960 C   0  0  0  0  0  0  0  0  0  0  0  0
   -5.1310   14.6680   -2.8260 C   0  0  0  0  0  0  0  0  0  0  0  0
   -4.8090   14.3880   -4.2150 C   0  0  0  0  0  0  0  0  0  0  0  0
   -6.2930   14.9480   -2.0970 C   0  0  0  0  0  0  0  0  0  0  0  0
   -3.5380   13.8200   -4.3470 C   0  0  0  0  0  0  0  0  0  0  0  0
   -5.5220   14.6000   -5.3860 C   0  0  0  0  0  0  0  0  0  0  0  0
   -2.9900   13.4880   -5.5630 C   0  0  0  0  0  0  0  0  0  0  0  0
   -5.0240   14.2830   -6.6220 N   0  0  0  0  0  0  0  0  0  0  0  0
   -1.6330   12.8970   -5.6530 C   0  0  0  0  0  0  0  0  0  0  0  0
   -3.7690   13.7380   -6.6830 C   0  0  0  0  0  0  0  0  0  0  0  0
   -0.6610   13.8240   -5.7400 O   0  0  0  0  0  0  0  0  0  0  0  0
   -1.3690   11.7090   -5.6330 O   0  0  0  0  0  0  0  0  0  0  0  0
  1  2  1  0
  2  3  2  0
  2  4  1  0
  4  5  2  0
  3  6  1  0
  4  7  1  0
  5  8  1  0
  6  8  2  0
  7  9  2  0
  7 10  1  0
  8 11  1  0
 10 12  2  0
  9 13  1  0
 13 14  1  0
 12 15  1  0
 13 15  2  0
 14 16  2  0
 14 17  1  0
 16 18  1  0
 17 19  2  0
 18 20  1  0
 18 21  2  0
 19 21  1  0
 20 22  1  0
 20 23  2  0
M  END
