mac-x0411-diamond-x0962_0_A
     RDKit          3D

 22 23  0  0  0  0  0  0  0  0999 V2000
    0.6800    9.0790   -7.8230 Cl  0  0  0  0  0  0  0  0  0  0  0  0
   -0.6250    9.6320   -6.8370 C   0  0  0  0  0  0  0  0  0  0  0  0
   -0.5200   10.7920   -6.0400 C   0  0  0  0  0  0  0  0  0  0  0  0
   -1.7960    8.8820   -6.8620 C   0  0  0  0  0  0  0  0  0  0  0  0
    0.6860   11.4770   -6.0730 O   0  0  0  0  0  0  0  0  0  0  0  0
   -1.6360   11.2050   -5.2510 C   0  0  0  0  0  0  0  0  0  0  0  0
   -2.8830    9.2750   -6.0980 C   0  0  0  0  0  0  0  0  0  0  0  0
   -1.6860   12.4220   -4.3400 C   0  0  0  0  0  0  0  0  0  0  0  0
    0.8780   12.5280   -5.1070 C   0  0  0  0  0  0  0  0  0  0  0  0
   -2.8040   10.4180   -5.3070 C   0  0  0  0  0  0  0  0  0  0  0  0
    0.9160   11.9370   -3.6990 C   0  0  0  0  0  0  0  0  0  0  0  0
   -2.1180   13.7610   -4.9600 C   0  0  0  0  0  0  0  0  0  0  0  0
    1.4490   12.7750   -2.7780 O   0  0  0  0  0  0  0  0  0  0  0  0
    0.5180   10.8220   -3.4020 O   0  0  0  0  0  0  0  0  0  0  0  0
   -1.8480   14.9810   -4.0650 C   0  0  0  0  0  0  0  0  0  0  0  0
   -2.5540   14.9480   -2.7690 C   0  0  0  0  0  0  0  0  0  0  0  0
   -3.1500   14.9750   -1.7230 C   0  0  0  0  0  0  0  0  0  0  0  0
   -3.8910   15.0650   -0.5230 C   0  0  0  0  0  0  0  0  0  0  0  0
   -3.3850   15.3380    0.7160 N   0  0  0  0  0  0  0  0  0  0  0  0
   -5.2390   14.9050   -0.3320 C   0  0  0  0  0  0  0  0  0  0  0  0
   -4.4310   15.3380    1.5900 C   0  0  0  0  0  0  0  0  0  0  0  0
   -5.5660   15.0730    0.9840 N   0  0  0  0  0  0  0  0  0  0  0  0
  1  2  1  0
  2  3  2  0
  2  4  1  0
  3  5  1  0
  3  6  1  0
  4  7  2  0
  6  8  1  0
  5  9  1  0
  6 10  2  0
  7 10  1  0
  9 11  1  0
  8 12  1  0
 11 13  1  0
 11 14  2  0
 12 15  1  0
 15 16  1  0
 16 17  3  0
 17 18  1  0
 18 19  1  0
 18 20  2  0
 19 21  1  0
 20 22  1  0
 21 22  2  0
M  END
