mac-x0472-mac-x0455
     RDKit          3D

 25 27  0  0  0  0  0  0  0  0999 V2000
   -3.7640   15.6470   -2.3240 O   0  0  0  0  0  0  0  0  0  0  0  0
   -2.9190   14.1340   -2.7840 S   0  0  0  0  0  0  0  0  0  0  0  0
   -1.4940   14.1480   -3.5320 C   0  0  1  0  0  0  0  0  0  0  0  0
   -2.1200   14.3780   -1.3820 N   0  0  0  0  0  0  0  0  0  0  0  0
   -3.8570   12.7980   -2.3840 C   0  0  0  0  0  0  0  0  0  0  0  0
   -1.4020   15.3240   -4.3670 O   0  0  0  0  0  0  0  0  0  0  0  0
   -0.1970   14.2210   -2.7640 C   0  0  0  0  0  0  0  0  0  0  0  0
   -2.7030   14.7230   -0.1190 C   0  0  0  0  0  0  0  0  0  0  0  0
   -3.3270   11.5200   -2.6260 C   0  0  0  0  0  0  0  0  0  0  0  0
   -5.0990   12.8350   -1.8490 C   0  0  0  0  0  0  0  0  0  0  0  0
   -1.2460   13.0140   -4.4770 C   0  0  0  0  0  0  0  0  0  0  0  0
    0.3900   15.3140   -2.4860 O   0  0  0  0  0  0  0  0  0  0  0  0
    0.4810   13.0790   -2.2960 O   0  0  0  0  0  0  0  0  0  0  0  0
   -2.2410   14.5210    1.0850 N   0  0  0  0  0  0  0  0  0  0  0  0
   -4.2000   15.5180    0.2120 S   0  0  0  0  0  0  0  0  0  0  0  0
   -4.0430   10.3930   -2.3430 C   0  0  0  0  0  0  0  0  0  0  0  0
   -5.8430   11.6830   -1.5500 C   0  0  0  0  0  0  0  0  0  0  0  0
   -2.2290   12.0860   -4.7470 C   0  0  0  0  0  0  0  0  0  0  0  0
   -0.0170   12.8370   -5.1240 C   0  0  0  0  0  0  0  0  0  0  0  0
   -4.0730   15.5030    1.9080 C   0  0  0  0  0  0  0  0  0  0  0  0
   -2.9020   14.8940    2.0680 N   0  0  0  0  0  0  0  0  0  0  0  0
   -5.3080   10.4400   -1.8040 C   0  0  0  0  0  0  0  0  0  0  0  0
   -2.0450   11.0030   -5.6120 C   0  0  0  0  0  0  0  0  0  0  0  0
    0.1750   11.7790   -5.9780 C   0  0  0  0  0  0  0  0  0  0  0  0
   -0.8280   10.8550   -6.2290 C   0  0  0  0  0  0  0  0  0  0  0  0
  1  2  2  0
  2  3  1  0
  2  4  1  0
  2  5  1  0
  3  6  1  6
  3  7  1  0
  4  8  1  0
  5  9  2  0
  5 10  1  0
  3 11  1  0
  7 12  2  0
  7 13  1  0
  8 14  2  0
  8 15  1  0
  9 16  1  0
 10 17  2  0
 11 18  2  0
 11 19  1  0
 15 20  1  0
 14 21  1  0
 20 21  2  0
 16 22  2  0
 17 22  1  0
 18 23  1  0
 19 24  2  0
 23 25  2  0
 24 25  1  0
M  END
