mac-x0568-mac-x0206
     RDKit          3D

 11 11  0  0  0  0  0  0  0  0999 V2000
   -8.5110   14.4600    1.6250 C   0  0  0  0  0  0  0  0  0  0  0  0
   -7.2040   14.6180    0.9130 C   0  0  0  0  0  0  0  0  0  0  0  0
   -6.0090   14.6550    1.6290 C   0  0  0  0  0  0  0  0  0  0  0  0
   -7.2450   14.7250   -0.4290 N   0  0  0  0  0  0  0  0  0  0  0  0
   -6.0790   14.8710   -1.0780 C   0  0  0  0  0  0  0  0  0  0  0  0
   -4.8070   14.8050    0.9410 C   0  0  0  0  0  0  0  0  0  0  0  0
   -6.2530   14.9690   -2.4220 O   0  0  0  0  0  0  0  0  0  0  0  0
   -4.8330   14.9170   -0.4530 C   0  0  0  0  0  0  0  0  0  0  0  0
   -3.5550   15.0710   -1.1820 C   0  0  0  0  0  0  0  0  0  0  0  0
   -3.5200   15.3550   -2.3710 O   0  0  0  0  0  0  0  0  0  0  0  0
   -2.3980   14.8590   -0.4730 N   0  0  0  0  0  0  0  0  0  0  0  0
  1  2  1  0
  2  3  2  0
  2  4  1  0
  4  5  2  0
  3  6  1  0
  5  7  1  0
  5  8  1  0
  6  8  2  0
  8  9  1  0
  9 10  2  0
  9 11  1  0
M  END
