mac-x0436-mac-x0371
     RDKit          3D

 22 25  0  0  0  0  0  0  0  0999 V2000
    0.6160   11.1410   -3.1230 N   0  0  0  0  0  0  0  0  0  0  0  0
    1.6610   12.2090   -3.1590 C   0  0  0  0  0  0  0  0  0  0  0  0
    1.9930   12.6020   -2.0530 O   0  0  0  0  0  0  0  0  0  0  0  0
    0.4990   10.5670   -2.0270 O   0  0  0  0  0  0  0  0  0  0  0  0
    2.1910   12.8420   -4.4570 C   0  0  0  0  0  0  0  0  0  0  0  0
    1.2050   13.8980   -4.5050 C   0  0  0  0  0  0  0  0  0  0  0  0
   -0.0340   13.5000   -4.9000 C   0  0  0  0  0  0  0  0  0  0  0  0
    1.4120   15.2300   -4.1550 C   0  0  0  0  0  0  0  0  0  0  0  0
   -0.5350   12.2340   -5.4180 C   0  0  0  0  0  0  0  0  0  0  0  0
   -1.1410   14.3180   -4.9000 C   0  0  0  0  0  0  0  0  0  0  0  0
    0.3270   16.1200   -4.1920 C   0  0  0  0  0  0  0  0  0  0  0  0
   -2.3510   13.6120   -5.2400 N   0  0  0  0  0  0  0  0  0  0  0  0
   -2.0160   12.3550   -5.4470 C   0  0  0  0  0  0  0  0  0  0  0  0
    0.1120   11.2050   -5.9000 N   0  0  0  0  0  0  0  0  0  0  0  0
   -0.9660   15.6630   -4.5520 C   0  0  0  0  0  0  0  0  0  0  0  0
   -2.7410   11.2170   -5.7120 N   0  0  0  0  0  0  0  0  0  0  0  0
   -0.6840   10.1550   -6.4700 C   0  0  0  0  0  0  0  0  0  0  0  0
   -2.0970   10.1480   -6.3670 C   0  0  0  0  0  0  0  0  0  0  0  0
   -0.0500    9.1040   -7.1600 C   0  0  0  0  0  0  0  0  0  0  0  0
   -0.7950    8.0620   -7.7190 C   0  0  0  0  0  0  0  0  0  0  0  0
   -2.8310    9.0920   -6.9270 C   0  0  0  0  0  0  0  0  0  0  0  0
   -2.1800    8.0530   -7.5990 C   0  0  0  0  0  0  0  0  0  0  0  0
  1  2  1  0
  2  3  2  0
  1  4  2  0
  2  5  1  0
  5  6  1  0
  6  7  2  0
  6  8  1  0
  7  9  1  0
  7 10  1  0
  8 11  2  0
 10 12  1  0
  9 13  1  0
 12 13  2  0
  9 14  2  0
 10 15  2  0
 11 15  1  0
 13 16  1  0
 14 17  1  0
 16 18  1  0
 17 18  2  0
 17 19  1  0
 19 20  2  0
 18 21  1  0
 20 22  1  0
 21 22  2  0
M  END
