mac-x0283-mac-x0284
     RDKit          3D

 20 22  0  0  0  0  0  0  0  0999 V2000
   -6.5970   14.8940    2.6330 N   0  0  0  0  0  0  0  0  0  0  0  0
   -6.7910   14.8270    1.3180 C   0  0  0  0  0  0  0  0  0  0  0  0
   -8.0420   14.7510    0.8870 N   0  0  0  0  0  0  0  0  0  0  0  0
   -5.8010   14.8370    0.2500 C   0  0  0  0  0  0  0  0  0  0  0  0
   -7.9700   14.7100   -0.4570 O   0  0  0  0  0  0  0  0  0  0  0  0
   -6.6940   14.7570   -0.8400 C   0  0  0  0  0  0  0  0  0  0  0  0
   -4.3320   14.9010    0.0920 C   0  0  0  0  0  0  0  0  0  0  0  0
   -6.4090   14.7260   -2.1490 C   0  0  0  0  0  0  0  0  0  0  0  0
   -4.2610   14.8480   -1.3250 C   0  0  0  0  0  0  0  0  0  0  0  0
   -3.2390   14.9050   -0.8450 C   0  0  0  0  0  0  0  0  0  0  0  0
   -5.1260   14.7720   -2.3700 C   0  0  0  0  0  0  0  0  0  0  0  0
   -1.8710   14.6310   -0.7990 C   0  0  0  0  0  0  0  0  0  0  0  0
   -3.8180   15.2470   -2.0840 C   0  0  0  0  0  0  0  0  0  0  0  0
   -1.1490   14.6910   -2.0350 C   0  0  0  0  0  0  0  0  0  0  0  0
   -3.1250   15.3080   -3.2670 C   0  0  0  0  0  0  0  0  0  0  0  0
    0.2940   14.3960   -2.0480 C   0  0  0  0  0  0  0  0  0  0  0  0
   -1.7970   15.0220   -3.2410 C   0  0  0  0  0  0  0  0  0  0  0  0
   -1.1110   15.0690   -4.4280 O   0  0  0  0  0  0  0  0  0  0  0  0
    1.0010   14.4880   -1.0720 O   0  0  0  0  0  0  0  0  0  0  0  0
    0.7610   14.0190   -3.2550 O   0  0  0  0  0  0  0  0  0  0  0  0
  1  2  1  0
  2  3  2  0
  2  4  1  0
  3  5  1  0
  4  6  2  0
  5  6  1  0
  4  7  1  0
  6  8  1  0
  7  9  2  0
  7 10  1  0
  8 11  2  0
  9 11  1  0
 10 12  2  0
 10 13  1  0
 12 14  1  0
 13 15  2  0
 14 16  1  0
 14 17  2  0
 15 17  1  0
 17 18  1  0
 16 19  2  0
 16 20  1  0
M  END
