mac-x0284-mac-x0161
     RDKit          3D

 22 24  0  0  0  0  0  0  0  0999 V2000
   -3.9120   16.0120    0.7460 C   0  0  0  0  0  0  0  0  0  0  0  0
   -3.5250   15.1780   -0.4570 C   0  0  1  0  0  0  0  0  0  0  0  0
   -4.2880   15.6180   -1.6770 C   0  0  0  0  0  0  0  0  0  0  0  0
   -1.9990   14.8920   -0.6400 C   0  0  2  0  0  0  0  0  0  0  0  0
   -1.6790   14.3370   -2.0800 C   0  0  2  0  0  0  0  0  0  0  0  0
   -3.9030   15.3110   -2.9180 C   0  0  0  0  0  0  0  0  0  0  0  0
   -1.6980   13.8860    0.4750 C   0  0  0  0  0  0  0  0  0  0  0  0
   -1.0130   15.9680   -0.2910 N   0  0  0  0  0  0  0  0  0  0  0  0
   -0.2640   14.1870   -2.6190 C   0  0  0  0  0  0  0  0  0  0  0  0
   -2.6970   14.5300   -3.2210 C   0  0  1  0  0  0  0  0  0  0  0  0
   -0.9960   14.6720    1.4880 N   0  0  0  0  0  0  0  0  0  0  0  0
   -0.0770   15.3250    0.6060 C   0  0  0  0  0  0  0  0  0  0  0  0
   -2.1630   15.0120   -4.4410 O   0  0  0  0  0  0  0  0  0  0  0  0
    0.7230   14.2130   -1.5950 O   0  0  0  0  0  0  0  0  0  0  0  0
    0.0880   15.1690   -3.5750 O   0  0  0  0  0  0  0  0  0  0  0  0
   -0.2340   12.8890   -3.2670 C   0  0  0  0  0  0  0  0  0  0  0  0
   -0.5920   12.4550   -4.5190 C   0  0  0  0  0  0  0  0  0  0  0  0
    0.2030   11.8530   -2.5190 O   0  0  0  0  0  0  0  0  0  0  0  0
    0.1250   10.7080   -3.2700 N   0  0  0  0  0  0  0  0  0  0  0  0
   -0.3470   11.0870   -4.4550 C   0  0  0  0  0  0  0  0  0  0  0  0
   -0.5540   10.2040   -5.4480 O   0  0  0  0  0  0  0  0  0  0  0  0
   -1.8320   10.3180   -6.0590 C   0  0  0  0  0  0  0  0  0  0  0  0
  2  1  1  1
  2  3  1  0
  2  4  1  0
  4  5  1  0
  3  6  2  0
  4  7  1  1
  4  8  1  0
  5  9  1  6
  5 10  1  0
  6 10  1  0
  7 11  1  0
  8 12  1  0
 11 12  1  0
 10 13  1  6
  9 14  1  0
  9 15  1  0
  9 16  1  0
 16 17  2  0
 16 18  1  0
 18 19  1  0
 17 20  1  0
 19 20  2  0
 20 21  1  0
 21 22  1  0
M  END
