mac-x0387-diamond-x0766_0_A
     RDKit          3D

 18 20  0  0  0  0  0  0  0  0999 V2000
   -3.9620   14.9400    1.1930 N   0  0  0  0  0  0  0  0  0  0  0  0
   -2.5740   15.2730    0.9120 C   0  0  1  0  0  0  0  0  0  0  0  0
   -1.5900   14.4900    1.6120 N   0  0  0  0  0  0  0  0  0  0  0  0
   -2.2400   15.2970   -0.6130 C   0  0  1  0  0  0  0  0  0  0  0  0
   -1.0960   14.3270   -1.1030 C   0  0  2  0  0  0  0  0  0  0  0  0
   -0.2910   14.4940    1.2160 C   0  0  0  0  0  0  0  0  0  0  0  0
   -3.4990   15.1430   -1.4500 C   0  0  0  0  0  0  0  0  0  0  0  0
    0.0200   14.4210   -0.0760 C   0  0  0  0  0  0  0  0  0  0  0  0
   -0.7210   14.5380   -2.6570 C   0  0  2  0  0  0  0  0  0  0  0  0
   -3.1750   15.3110   -2.8920 C   0  0  0  0  0  0  0  0  0  0  0  0
   -1.9660   15.0510   -3.4200 C   0  0  0  0  0  0  0  0  0  0  0  0
   -0.2120   13.2720   -3.4540 C   0  0  2  0  0  0  0  0  0  0  0  0
    0.4610   15.5210   -2.8860 C   0  0  0  0  0  0  0  0  0  0  0  0
    0.5610   12.2580   -2.6600 C   0  0  0  0  0  0  0  0  0  0  0  0
    0.6670   13.7860   -4.6160 C   0  0  0  0  0  0  0  0  0  0  0  0
    1.2740   15.0950   -4.1270 C   0  0  0  0  0  0  0  0  0  0  0  0
    1.6100   12.4960   -2.1000 O   0  0  0  0  0  0  0  0  0  0  0  0
    0.0200   11.0290   -2.6000 O   0  0  0  0  0  0  0  0  0  0  0  0
  2  1  1  6
  2  3  1  0
  2  4  1  0
  4  5  1  0
  3  6  1  0
  4  7  1  6
  5  8  1  1
  6  8  2  0
  5  9  1  0
  7 10  1  0
  9 11  1  6
 10 11  2  0
  9 12  1  0
  9 13  1  0
 12 14  1  1
 12 15  1  0
 13 16  1  0
 15 16  1  0
 14 17  2  0
 14 18  1  0
M  END
