mac-x0345-mac-x0588
     RDKit          3D

 24 27  0  0  0  0  0  0  0  0999 V2000
   -7.2470   14.4210    1.1610 C   0  0  0  0  0  0  0  0  0  0  0  0
   -6.4320   14.7960   -0.0440 C   0  0  0  0  0  0  0  0  0  0  0  0
   -7.0280   14.6460   -1.2660 N   0  0  0  0  0  0  0  0  0  0  0  0
   -5.1230   15.2710    0.0390 C   0  0  0  0  0  0  0  0  0  0  0  0
   -4.3320   15.4680    1.0790 O   0  0  0  0  0  0  0  0  0  0  0  0
   -4.4510   15.5990   -1.1070 C   0  0  0  0  0  0  0  0  0  0  0  0
   -6.3020   14.9700   -2.3570 C   0  0  0  0  0  0  0  0  0  0  0  0
   -6.8730   14.8070   -3.6030 N   0  0  0  0  0  0  0  0  0  0  0  0
   -5.0330   15.4460   -2.3120 C   0  0  0  0  0  0  0  0  0  0  0  0
   -3.2340   15.4990    0.1380 C   0  0  2  0  0  0  0  0  0  0  0  0
   -3.3790   14.3360   -0.7490 N   0  0  0  0  0  0  0  0  0  0  0  0
   -1.8230   15.5130    0.6570 C   0  0  2  0  0  0  0  0  0  0  0  0
   -2.5950   14.3950   -1.9680 C   0  0  0  0  0  0  0  0  0  0  0  0
   -0.9020   15.4240   -0.5800 C   0  0  2  0  0  0  0  0  0  0  0  0
   -1.4590   14.3870    1.5050 N   0  0  0  0  0  0  0  0  0  0  0  0
   -1.4910   15.3440   -1.9270 N   0  0  0  0  0  0  0  0  0  0  0  0
   -0.0410   14.2960   -0.2750 N   0  0  0  0  0  0  0  0  0  0  0  0
   -0.0890   14.2140    1.1670 C   0  0  0  0  0  0  0  0  0  0  0  0
   -0.5060   15.1000   -2.9940 C   0  0  0  0  0  0  0  0  0  0  0  0
   -0.5990   15.9360   -4.2850 C   0  0  1  0  0  0  0  0  0  0  0  0
   -1.3650   17.1410   -4.1160 O   0  0  0  0  0  0  0  0  0  0  0  0
    0.7700   16.3630   -4.8240 C   0  0  0  0  0  0  0  0  0  0  0  0
    0.5570   17.7740   -5.3290 C   0  0  0  0  0  0  0  0  0  0  0  0
   -0.9350   18.0050   -5.1640 C   0  0  0  0  0  0  0  0  0  0  0  0
  1  2  1  0
  2  3  2  0
  2  4  1  0
  4  5  1  0
  4  6  2  0
  3  7  1  0
  7  8  1  0
  6  9  1  0
  7  9  2  0
 10  5  1  1
 10 11  1  0
 10 12  1  0
 11 13  1  0
 12 14  1  0
 12 15  1  1
 13 16  1  0
 14 16  1  0
 14 17  1  1
 15 18  1  0
 17 18  1  0
 16 19  1  0
 20 19  1  1
 20 21  1  0
 20 22  1  0
 22 23  1  0
 21 24  1  0
 23 24  1  0
M  END
