mac-x0303-mac-x0439
     RDKit          3D

 28 31  0  0  0  0  0  0  0  0999 V2000
   -8.5880   12.9600    2.6690 N   0  0  0  0  0  0  0  0  0  0  0  0
   -8.6700   14.5140    1.9940 S   0  0  0  0  0  0  0  0  0  0  0  0
   -8.5430   15.4210    3.1100 O   0  0  0  0  0  0  0  0  0  0  0  0
   -9.8080   14.4940    1.1130 O   0  0  0  0  0  0  0  0  0  0  0  0
   -7.2100   14.6960    1.0270 C   0  0  0  0  0  0  0  0  0  0  0  0
   -7.2000   14.8940   -0.3360 N   0  0  0  0  0  0  0  0  0  0  0  0
   -5.9910   14.6720    1.5000 N   0  0  0  0  0  0  0  0  0  0  0  0
   -5.8880   14.9990   -0.7380 C   0  0  0  0  0  0  0  0  0  0  0  0
   -5.1670   14.8540    0.4410 C   0  0  0  0  0  0  0  0  0  0  0  0
   -5.2760   15.2000   -1.9730 C   0  0  0  0  0  0  0  0  0  0  0  0
   -3.7780   14.9030    0.4270 C   0  0  0  0  0  0  0  0  0  0  0  0
   -3.8660   15.2430   -1.9740 C   0  0  0  0  0  0  0  0  0  0  0  0
   -3.1470   15.0950   -0.7900 C   0  0  0  0  0  0  0  0  0  0  0  0
   -3.0830   15.4490   -3.2340 C   0  0  0  0  0  0  0  0  0  0  0  0
   -3.5750   14.8740   -4.5270 C   0  0  0  0  0  0  0  0  0  0  0  0
   -3.0750   15.7080   -5.7000 C   0  0  0  0  0  0  0  0  0  0  0  0
   -1.7560   16.4720   -5.5500 C   0  0  0  0  0  0  0  0  0  0  0  0
   -0.4470   15.7920   -5.1640 C   0  0  2  0  0  0  0  0  0  0  0  0
   -1.7020   17.7980   -5.8320 C   0  0  0  0  0  0  0  0  0  0  0  0
   -0.2030   14.7020   -4.1860 C   0  0  0  0  0  0  0  0  0  0  0  0
    0.5790   16.7540   -4.6330 C   0  0  0  0  0  0  0  0  0  0  0  0
   -0.4640   18.5590   -5.7760 C   0  0  0  0  0  0  0  0  0  0  0  0
    0.8550   15.0310   -3.4250 C   0  0  0  0  0  0  0  0  0  0  0  0
    1.3250   16.2880   -3.7000 N   0  0  0  0  0  0  0  0  0  0  0  0
    0.6680   18.1020   -5.2160 C   0  0  0  0  0  0  0  0  0  0  0  0
    1.4590   14.1480   -2.3740 C   0  0  0  0  0  0  0  0  0  0  0  0
    2.6210   14.6110   -1.8270 O   0  0  0  0  0  0  0  0  0  0  0  0
    0.9970   13.0870   -2.0020 O   0  0  0  0  0  0  0  0  0  0  0  0
  2  1  1  0
  2  3  2  0
  2  4  2  0
  2  5  1  0
  5  6  1  0
  5  7  2  0
  6  8  1  0
  7  9  1  0
  8  9  2  0
  8 10  1  0
  9 11  1  0
 10 12  2  0
 11 13  2  0
 12 13  1  0
 12 14  1  0
 14 15  1  0
 15 16  1  0
 16 17  1  0
 17 18  1  0
 17 19  2  0
 18 20  1  1
 18 21  1  0
 19 22  1  0
 20 23  2  0
 21 24  2  0
 23 24  1  0
 21 25  1  0
 22 25  2  0
 23 26  1  0
 26 27  1  0
 26 28  2  0
M  END
