mac-x0345-mac-x0277
     RDKit          3D

 23 24  0  0  0  0  0  0  0  0999 V2000
   -7.3590   14.6850    0.4890 C   0  0  0  0  0  0  0  0  0  0  0  0
   -6.1580   14.8860   -0.4010 C   0  0  0  0  0  0  0  0  0  0  0  0
   -6.3580   14.6680   -1.7310 N   0  0  0  0  0  0  0  0  0  0  0  0
   -4.9010   15.2640    0.0710 C   0  0  0  0  0  0  0  0  0  0  0  0
   -4.4120   15.6110    1.8280 Br  0  0  0  0  0  0  0  0  0  0  0  0
   -3.8630   15.4130   -0.7960 C   0  0  0  0  0  0  0  0  0  0  0  0
   -5.3040   14.8250   -2.5680 C   0  0  0  0  0  0  0  0  0  0  0  0
   -5.5190   14.5820   -3.9170 N   0  0  0  0  0  0  0  0  0  0  0  0
   -4.0550   15.1970   -2.1270 C   0  0  0  0  0  0  0  0  0  0  0  0
   -4.4640   13.8160   -4.6030 C   0  0  0  0  0  0  0  0  0  0  0  0
   -3.6840   14.6110   -5.6730 C   0  0  0  0  0  0  0  0  0  0  0  0
   -2.9450   15.8430   -5.1370 C   0  0  0  0  0  0  0  0  0  0  0  0
   -1.4520   15.7260   -4.8800 C   0  0  0  0  0  0  0  0  0  0  0  0
   -0.8530   14.4790   -4.5790 C   0  0  0  0  0  0  0  0  0  0  0  0
   -0.6280   16.8550   -4.9300 C   0  0  0  0  0  0  0  0  0  0  0  0
   -1.2720   18.4130   -5.2920 Cl  0  0  0  0  0  0  0  0  0  0  0  0
    0.5350   14.3670   -4.3310 C   0  0  0  0  0  0  0  0  0  0  0  0
    0.7400   16.7590   -4.6890 C   0  0  0  0  0  0  0  0  0  0  0  0
    1.1810   13.0300   -4.0060 C   0  0  0  0  0  0  0  0  0  0  0  0
    1.3210   15.5260   -4.3900 C   0  0  0  0  0  0  0  0  0  0  0  0
    0.6560   12.3370   -2.7530 C   0  0  0  0  0  0  0  0  0  0  0  0
    0.0790   11.1580   -3.0560 O   0  0  0  0  0  0  0  0  0  0  0  0
    0.6960   12.7060   -1.5810 O   0  0  0  0  0  0  0  0  0  0  0  0
  1  2  1  0
  2  3  2  0
  2  4  1  0
  4  5  1  0
  4  6  2  0
  3  7  1  0
  7  8  1  0
  6  9  1  0
  7  9  2  0
  8 10  1  0
 10 11  1  0
 11 12  1  0
 12 13  1  0
 13 14  2  0
 13 15  1  0
 15 16  1  0
 14 17  1  0
 15 18  2  0
 17 19  1  0
 17 20  2  0
 18 20  1  0
 19 21  1  0
 21 22  1  0
 21 23  2  0
M  END
