mac-x0138-mac-x0213
     RDKit          3D

 26 29  0  0  0  0  0  0  0  0999 V2000
   -2.0160   14.8960   -3.3830 C   0  0  0  0  0  0  0  0  0  0  0  0
   -2.8650   15.0560   -2.2650 N   0  0  0  0  0  0  0  0  0  0  0  0
   -4.1760   15.3710   -2.2700 C   0  0  0  0  0  0  0  0  0  0  0  0
   -2.4790   14.9180   -0.9970 C   0  0  0  0  0  0  0  0  0  0  0  0
   -4.6540   15.4500   -1.0420 N   0  0  0  0  0  0  0  0  0  0  0  0
   -3.5710   15.1650   -0.2340 C   0  0  0  0  0  0  0  0  0  0  0  0
   -1.2950   14.6140   -0.5960 N   0  0  0  0  0  0  0  0  0  0  0  0
   -3.3730   15.0820    1.1540 C   0  0  0  0  0  0  0  0  0  0  0  0
   -1.1780   14.5300    0.7090 C   0  0  0  0  0  0  0  0  0  0  0  0
   -4.4070   15.3400    2.0300 N   0  0  0  0  0  0  0  0  0  0  0  0
    0.0770   14.1660    1.0020 N   0  0  0  0  0  0  0  0  0  0  0  0
   -2.1300   14.7410    1.6340 N   0  0  0  0  0  0  0  0  0  0  0  0
    0.4750   13.6980   -0.3340 C   0  0  0  0  0  0  0  0  0  0  0  0
    1.6500   14.3250   -1.0260 C   0  0  0  0  0  0  0  0  0  0  0  0
    1.2330   14.3840   -2.3880 N   0  0  0  0  0  0  0  0  0  0  0  0
    0.6530   13.4680   -3.0720 C   0  0  0  0  0  0  0  0  0  0  0  0
    0.3780   12.2560   -2.5350 O   0  0  0  0  0  0  0  0  0  0  0  0
    0.2420   13.6080   -4.4870 C   0  0  0  0  0  0  0  0  0  0  0  0
   -1.2230   13.9900   -4.7690 C   0  0  0  0  0  0  0  0  0  0  0  0
    1.1180   14.7110   -5.0590 C   0  0  0  0  0  0  0  0  0  0  0  0
   -1.1390   15.4760   -5.0440 C   0  0  0  0  0  0  0  0  0  0  0  0
    0.1860   15.8720   -5.1910 C   0  0  0  0  0  0  0  0  0  0  0  0
   -2.1710   16.4150   -5.1630 C   0  0  0  0  0  0  0  0  0  0  0  0
    0.5230   17.1950   -5.4420 C   0  0  0  0  0  0  0  0  0  0  0  0
   -1.8320   17.7430   -5.4230 C   0  0  0  0  0  0  0  0  0  0  0  0
   -0.4970   18.1290   -5.5570 C   0  0  0  0  0  0  0  0  0  0  0  0
  1  2  1  0
  2  3  1  0
  2  4  1  0
  3  5  2  0
  4  6  2  0
  5  6  1  0
  4  7  1  0
  6  8  1  0
  7  9  2  0
  8 10  1  0
  9 11  1  0
  8 12  2  0
  9 12  1  0
 11 13  1  0
 13 14  1  0
 14 15  1  0
 15 16  2  3
 16 17  1  0
 16 18  1  0
 18 19  1  0
 18 20  1  0
 19 21  1  0
 20 22  1  0
 21 22  2  0
 21 23  1  0
 22 24  1  0
 23 25  2  0
 24 26  2  0
 25 26  1  0
M  END
