mac-x0527-mac-x0190
     RDKit          3D

 21 23  0  0  0  0  0  0  0  0999 V2000
   -3.5430   15.5950   -3.7540 O   0  0  0  0  0  0  0  0  0  0  0  0
   -3.0210   15.1280   -2.7510 C   0  0  0  0  0  0  0  0  0  0  0  0
   -1.7190   14.6840   -2.7230 N   0  0  0  0  0  0  0  0  0  0  0  0
   -3.7970   14.9950   -1.4580 C   0  0  0  0  0  0  0  0  0  0  0  0
   -0.8890   14.8020   -3.9080 C   0  0  0  0  0  0  0  0  0  0  0  0
   -5.1290   14.9200   -1.6260 C   0  0  0  0  0  0  0  0  0  0  0  0
   -3.1620   14.9550   -0.1980 N   0  0  0  0  0  0  0  0  0  0  0  0
   -0.8520   13.5260   -4.7210 C   0  0  0  0  0  0  0  0  0  0  0  0
   -5.9330   14.7740   -0.5260 N   0  0  0  0  0  0  0  0  0  0  0  0
   -3.9410   14.8360    0.8570 C   0  0  0  0  0  0  0  0  0  0  0  0
   -2.0230   12.8010   -4.9580 C   0  0  0  0  0  0  0  0  0  0  0  0
    0.3510   13.0370   -5.2560 C   0  0  0  0  0  0  0  0  0  0  0  0
   -5.3720   14.7270    0.7300 C   0  0  0  0  0  0  0  0  0  0  0  0
   -7.2770   14.6470   -0.4420 N   0  0  0  0  0  0  0  0  0  0  0  0
   -1.9970   11.6110   -5.6900 C   0  0  0  0  0  0  0  0  0  0  0  0
    0.3770   11.8520   -5.9940 C   0  0  0  0  0  0  0  0  0  0  0  0
   -7.4580   14.5220    0.8840 C   0  0  0  0  0  0  0  0  0  0  0  0
   -6.3020   14.5720    1.6440 N   0  0  0  0  0  0  0  0  0  0  0  0
   -8.8180   14.3340    1.4770 C   0  0  0  0  0  0  0  0  0  0  0  0
   -0.7990   11.1320   -6.2090 C   0  0  0  0  0  0  0  0  0  0  0  0
   -9.0940   15.2280    2.5590 O   0  0  0  0  0  0  0  0  0  0  0  0
  1  2  2  0
  2  3  1  0
  2  4  1  0
  3  5  1  0
  4  6  2  0
  4  7  1  0
  5  8  1  0
  6  9  1  0
  7 10  2  0
  8 11  2  0
  8 12  1  0
  9 13  1  0
 10 13  1  0
  9 14  1  0
 11 15  1  0
 12 16  2  0
 14 17  2  0
 13 18  2  0
 17 18  1  0
 17 19  1  0
 15 20  2  0
 16 20  1  0
 19 21  1  0
M  END
