mac-x0394-mac-x0206
     RDKit          3D

 24 25  0  0  0  0  0  0  0  0999 V2000
    1.0170   18.3150   -5.0600 Cl  0  0  0  0  0  0  0  0  0  0  0  0
    0.3510   16.7560   -4.9540 C   0  0  0  0  0  0  0  0  0  0  0  0
   -0.9950   16.6220   -5.2110 C   0  0  0  0  0  0  0  0  0  0  0  0
    1.1390   15.6590   -4.6220 C   0  0  0  0  0  0  0  0  0  0  0  0
    0.5660   14.3890   -4.5510 C   0  0  0  0  0  0  0  0  0  0  0  0
   -1.5770   15.3660   -5.1440 C   0  0  0  0  0  0  0  0  0  0  0  0
   -3.0300   15.1980   -5.4180 C   0  0  0  0  0  0  0  0  0  0  0  0
    1.3910   13.1860   -4.1910 C   0  0  0  0  0  0  0  0  0  0  0  0
   -0.7970   14.2590   -4.8160 C   0  0  0  0  0  0  0  0  0  0  0  0
    0.8640   12.4470   -2.9800 C   0  0  0  0  0  0  0  0  0  0  0  0
   -3.8060   15.3170   -4.1240 C   0  0  0  0  0  0  0  0  0  0  0  0
    0.2330   11.2830   -3.2410 O   0  0  0  0  0  0  0  0  0  0  0  0
    0.9840   12.8690   -1.8340 O   0  0  0  0  0  0  0  0  0  0  0  0
   -3.3590   14.4240   -2.9850 C   0  0  0  0  0  0  0  0  0  0  0  0
   -4.4880   14.4250   -2.0780 N   0  0  0  0  0  0  0  0  0  0  0  0
   -4.4500   14.8320   -0.8620 C   0  0  0  0  0  0  0  0  0  0  0  0
   -3.2600   15.2880   -0.3720 N   0  0  0  0  0  0  0  0  0  0  0  0
   -5.6270   14.8160    0.0330 C   0  0  0  0  0  0  0  0  0  0  0  0
   -6.9060   14.7340   -0.5260 C   0  0  0  0  0  0  0  0  0  0  0  0
   -5.4800   14.8710    1.4120 C   0  0  0  0  0  0  0  0  0  0  0  0
   -7.0500   14.6810   -1.8830 O   0  0  0  0  0  0  0  0  0  0  0  0
   -8.0370   14.7020    0.2870 C   0  0  0  0  0  0  0  0  0  0  0  0
   -6.6180   14.8390    2.2320 C   0  0  0  0  0  0  0  0  0  0  0  0
   -7.8890   14.7530    1.6710 C   0  0  0  0  0  0  0  0  0  0  0  0
  1  2  1  0
  2  3  2  0
  2  4  1  0
  4  5  2  0
  3  6  1  0
  6  7  1  0
  5  8  1  0
  5  9  1  0
  6  9  2  0
  8 10  1  0
  7 11  1  0
 10 12  1  0
 10 13  2  0
 11 14  1  0
 14 15  1  0
 15 16  2  3
 16 17  1  0
 16 18  1  0
 18 19  2  0
 18 20  1  0
 19 21  1  0
 19 22  1  0
 20 23  2  0
 22 24  2  0
 23 24  1  0
M  END
