mac-x0392-mac-x0433
     RDKit          3D

 18 19  0  0  0  0  0  0  0  0999 V2000
   -0.0800   14.5890    0.3020 N   0  0  0  0  0  0  0  0  0  0  0  0
   -1.2330   15.4230   -0.1110 C   0  0  2  0  0  0  0  0  0  0  0  0
   -2.4340   15.4230    0.9030 C   0  0  0  0  0  0  0  0  0  0  0  0
   -1.7770   15.0190   -1.4990 C   0  0  1  0  0  0  0  0  0  0  0  0
   -0.8140   14.9610   -2.6620 C   0  0  0  0  0  0  0  0  0  0  0  0
   -2.2650   13.6410   -1.3050 C   0  0  0  0  0  0  0  0  0  0  0  0
   -3.4470   14.4110    0.5340 N   0  0  0  0  0  0  0  0  0  0  0  0
   -1.1180   14.9160   -3.8430 O   0  0  0  0  0  0  0  0  0  0  0  0
    0.4850   14.9450   -2.3030 O   0  0  0  0  0  0  0  0  0  0  0  0
   -3.0540   13.4210   -0.2920 C   0  0  0  0  0  0  0  0  0  0  0  0
   -4.7470   14.6740    0.0980 C   0  0  0  0  0  0  0  0  0  0  0  0
   -4.8900   14.8970   -1.2230 N   0  0  0  0  0  0  0  0  0  0  0  0
   -5.8470   14.6600    0.9120 C   0  0  0  0  0  0  0  0  0  0  0  0
   -6.1040   15.0810   -1.7120 C   0  0  0  0  0  0  0  0  0  0  0  0
   -7.0740   14.8650    0.3170 C   0  0  0  0  0  0  0  0  0  0  0  0
   -8.3130   14.8470    1.1500 C   0  0  0  0  0  0  0  0  0  0  0  0
   -6.2030   15.2640   -3.0680 N   0  0  0  0  0  0  0  0  0  0  0  0
   -7.2190   15.0790   -0.9990 N   0  0  0  0  0  0  0  0  0  0  0  0
  2  1  1  1
  2  3  1  0
  2  4  1  0
  4  5  1  6
  4  6  1  0
  3  7  1  0
  5  8  2  0
  5  9  1  0
  6 10  2  0
  7 10  1  0
  7 11  1  0
 11 12  2  0
 11 13  1  0
 12 14  1  0
 13 15  2  0
 15 16  1  0
 14 17  1  0
 14 18  2  0
 15 18  1  0
M  END
