mac-x0588-mac-x0228
     RDKit          3D

 27 31  0  0  0  0  0  0  0  0999 V2000
   -4.4310   15.2440    1.7480 N   0  0  0  0  0  0  0  0  0  0  0  0
   -3.4530   15.7810    0.8190 C   0  0  1  0  0  0  0  0  0  0  0  0
   -2.2380   14.8820    0.5670 C   0  0  1  0  0  0  0  0  0  0  0  0
   -4.1930   16.0060   -0.3660 N   0  0  0  0  0  0  0  0  0  0  0  0
   -3.4280   15.6850   -1.5540 C   0  0  0  0  0  0  0  0  0  0  0  0
   -1.3050   15.5870   -0.4210 C   0  0  2  0  0  0  0  0  0  0  0  0
   -1.3850   14.5600    1.7020 N   0  0  0  0  0  0  0  0  0  0  0  0
   -1.9770   15.8750   -1.6710 N   0  0  0  0  0  0  0  0  0  0  0  0
   -0.2370   14.5900   -0.3380 N   0  0  0  0  0  0  0  0  0  0  0  0
   -0.0800   14.4010    1.0820 C   0  0  0  0  0  0  0  0  0  0  0  0
   -1.4880   15.3010   -2.8370 C   0  0  0  0  0  0  0  0  0  0  0  0
   -2.3470   14.3940   -3.3330 C   0  0  0  0  0  0  0  0  0  0  0  0
   -0.1140   15.7370   -3.4020 C   0  0  2  0  0  0  0  0  0  0  0  0
   -2.1300   13.6380   -4.4550 O   0  0  0  0  0  0  0  0  0  0  0  0
    0.0710   17.1510   -3.1900 O   0  0  0  0  0  0  0  0  0  0  0  0
    0.0690   15.5220   -4.9140 C   0  0  0  0  0  0  0  0  0  0  0  0
   -3.6400   14.2520   -2.6080 C   0  0  0  0  0  0  0  0  0  0  0  0
    0.3450   16.9090   -5.4700 C   0  0  0  0  0  0  0  0  0  0  0  0
   -0.2270   17.8010   -4.4160 C   0  0  0  0  0  0  0  0  0  0  0  0
   -3.7530   13.6580   -1.3300 C   0  0  0  0  0  0  0  0  0  0  0  0
   -4.7950   14.7750   -3.2360 C   0  0  0  0  0  0  0  0  0  0  0  0
   -5.0100   13.6280   -0.7190 C   0  0  0  0  0  0  0  0  0  0  0  0
   -6.0450   14.7360   -2.6100 C   0  0  0  0  0  0  0  0  0  0  0  0
   -6.1260   14.1650   -1.3550 C   0  0  0  0  0  0  0  0  0  0  0  0
   -5.4320   13.0910    0.6010 C   0  0  0  0  0  0  0  0  0  0  0  0
   -7.2760   14.0630   -0.6070 O   0  0  0  0  0  0  0  0  0  0  0  0
   -6.7600   13.8400    0.7300 C   0  0  0  0  0  0  0  0  0  0  0  0
  2  1  1  1
  2  3  1  0
  2  4  1  0
  4  5  1  0
  3  6  1  0
  3  7  1  1
  5  8  1  0
  6  8  1  0
  6  9  1  6
  7 10  1  0
  9 10  1  0
  8 11  1  0
 11 12  2  3
 13 11  1  6
 12 14  1  0
 13 15  1  0
 13 16  1  0
 12 17  1  0
 16 18  1  0
 15 19  1  0
 18 19  1  0
 17 20  2  0
 17 21  1  0
 20 22  1  0
 21 23  2  0
 22 24  2  0
 23 24  1  0
 22 25  1  0
 24 26  1  0
 25 27  1  0
 26 27  1  0
M  END
