mac-x0255-mac-x0271
     RDKit          3D

 26 29  0  0  0  0  0  0  0  0999 V2000
    1.1440   13.0310   -1.7930 O   0  0  0  0  0  0  0  0  0  0  0  0
    0.5990   12.1410   -2.6350 C   0  0  0  0  0  0  0  0  0  0  0  0
    0.1900   11.0720   -2.2170 O   0  0  0  0  0  0  0  0  0  0  0  0
    0.5400   12.5430   -4.0750 C   0  0  0  0  0  0  0  0  0  0  0  0
    0.0650   13.9470   -4.3410 C   0  0  0  0  0  0  0  0  0  0  0  0
   -1.0260   14.7130   -3.9240 C   0  0  0  0  0  0  0  0  0  0  0  0
    1.0300   14.8260   -5.3770 S   0  0  0  0  0  0  0  0  0  0  0  0
   -2.1410   14.2720   -2.9790 C   0  0  0  0  0  0  0  0  0  0  0  0
   -0.9980   16.0340   -4.5190 C   0  0  0  0  0  0  0  0  0  0  0  0
    0.0660   16.2170   -5.3250 C   0  0  0  0  0  0  0  0  0  0  0  0
   -3.3140   15.1360   -2.8860 O   0  0  0  0  0  0  0  0  0  0  0  0
   -1.8680   17.1150   -4.4020 C   0  0  0  0  0  0  0  0  0  0  0  0
    0.2750   17.4220   -5.9980 C   0  0  0  0  0  0  0  0  0  0  0  0
   -1.6800   18.3240   -5.0680 C   0  0  0  0  0  0  0  0  0  0  0  0
   -0.6050   18.4710   -5.8670 C   0  0  0  0  0  0  0  0  0  0  0  0
   -4.0190   15.0830   -1.7010 C   0  0  0  0  0  0  0  0  0  0  0  0
   -5.4300   15.0110   -1.7840 C   0  0  0  0  0  0  0  0  0  0  0  0
   -3.4210   15.0880   -0.4440 C   0  0  0  0  0  0  0  0  0  0  0  0
   -6.1900   14.9340   -0.5980 C   0  0  0  0  0  0  0  0  0  0  0  0
   -4.1860   15.0110    0.7220 C   0  0  0  0  0  0  0  0  0  0  0  0
   -5.5710   14.9270    0.6500 C   0  0  0  0  0  0  0  0  0  0  0  0
   -7.6060   14.8580   -0.6840 O   0  0  0  0  0  0  0  0  0  0  0  0
   -6.3850   14.8280    1.8500 C   0  0  0  0  0  0  0  0  0  0  0  0
   -8.4110   14.8470    0.4630 C   0  0  0  0  0  0  0  0  0  0  0  0
   -9.6360   14.8950    0.4260 O   0  0  0  0  0  0  0  0  0  0  0  0
   -7.7140   14.7850    1.7590 C   0  0  0  0  0  0  0  0  0  0  0  0
  1  2  1  0
  2  3  2  0
  2  4  1  0
  4  5  1  0
  5  6  2  0
  5  7  1  0
  6  8  1  0
  6  9  1  0
  7 10  1  0
  9 10  2  0
  8 11  1  0
  9 12  1  0
 10 13  1  0
 12 14  2  0
 13 15  2  0
 14 15  1  0
 11 16  1  0
 16 17  2  0
 16 18  1  0
 17 19  1  0
 18 20  2  0
 19 21  2  0
 20 21  1  0
 19 22  1  0
 21 23  1  0
 22 24  1  0
 24 25  2  0
 23 26  2  0
 24 26  1  0
M  END
