mac-x0180-mac-x0301
     RDKit          3D

 17 18  0  0  0  0  0  0  0  0999 V2000
   -7.9640   14.5260    1.4750 C   0  0  0  0  0  0  0  0  0  0  0  0
   -6.9100   14.6960    0.4260 C   0  0  0  0  0  0  0  0  0  0  0  0
   -7.2030   14.7640   -0.7690 O   0  0  0  0  0  0  0  0  0  0  0  0
   -5.6020   14.7880    0.7670 N   0  0  0  0  0  0  0  0  0  0  0  0
   -4.4250   14.7640   -0.0770 C   0  0  2  0  0  0  0  0  0  0  0  0
   -3.1170   15.1780    0.5700 C   0  0  0  0  0  0  0  0  0  0  0  0
   -4.5900   15.3860   -1.4160 C   0  0  0  0  0  0  0  0  0  0  0  0
   -1.9090   14.8150   -0.3100 C   0  0  1  0  0  0  0  0  0  0  0  0
   -3.5450   15.3840   -2.2610 C   0  0  0  0  0  0  0  0  0  0  0  0
   -2.2270   14.7400   -1.8510 C   0  0  1  0  0  0  0  0  0  0  0  0
   -0.7720   15.5530    0.1700 O   0  0  0  0  0  0  0  0  0  0  0  0
   -1.4890   13.4780    0.0920 C   0  0  0  0  0  0  0  0  0  0  0  0
   -1.0960   15.0860   -2.8220 C   0  0  0  0  0  0  0  0  0  0  0  0
   -0.1110   13.3930   -0.1700 O   0  0  0  0  0  0  0  0  0  0  0  0
    0.2590   14.6300    0.4100 C   0  0  0  0  0  0  0  0  0  0  0  0
   -1.1810   15.2700   -4.0260 O   0  0  0  0  0  0  0  0  0  0  0  0
    0.1040   15.1840   -2.2170 O   0  0  0  0  0  0  0  0  0  0  0  0
  1  2  1  0
  2  3  2  0
  2  4  1  0
  5  4  1  1
  5  6  1  0
  5  7  1  0
  8  6  1  1
  7  9  2  0
  8 10  1  0
  9 10  1  0
  8 11  1  0
  8 12  1  0
 10 13  1  6
 12 14  1  0
 11 15  1  0
 14 15  1  0
 13 16  2  0
 13 17  1  0
M  END
