mac-x0346-diamond-x0905_0_A
     RDKit          3D

 11 11  0  0  0  0  0  0  0  0999 V2000
   -7.5430   14.0440    1.1930 O   0  0  0  0  0  0  0  0  0  0  0  0
   -7.6670   14.9760    0.1340 N   0  0  0  0  0  0  0  0  0  0  0  0
   -6.6520   14.9960   -0.8050 C   0  0  0  0  0  0  0  0  0  0  0  0
   -6.8900   14.9630   -2.0040 O   0  0  0  0  0  0  0  0  0  0  0  0
   -5.2580   15.0530   -0.2930 C   0  0  0  0  0  0  0  0  0  0  0  0
   -4.1930   15.0100   -1.1900 C   0  0  0  0  0  0  0  0  0  0  0  0
   -4.9920   15.1460    1.0810 C   0  0  0  0  0  0  0  0  0  0  0  0
   -4.4240   14.9260   -2.5330 O   0  0  0  0  0  0  0  0  0  0  0  0
   -2.8790   15.0490   -0.7300 C   0  0  0  0  0  0  0  0  0  0  0  0
   -3.6750   15.1930    1.5360 C   0  0  0  0  0  0  0  0  0  0  0  0
   -2.6220   15.1410    0.6370 C   0  0  0  0  0  0  0  0  0  0  0  0
  1  2  1  0
  2  3  1  0
  3  4  2  0
  3  5  1  0
  5  6  2  0
  5  7  1  0
  6  8  1  0
  6  9  1  0
  7 10  2  0
  9 11  2  0
 10 11  1  0
M  END
