mac-x0341-diamond-x1015_0_A
     RDKit          3D

 28 31  0  0  0  0  0  0  0  0999 V2000
   -6.7410   14.8210    2.4950 N   0  0  0  0  0  0  0  0  0  0  0  0
   -6.0300   14.8040    1.3380 C   0  0  0  0  0  0  0  0  0  0  0  0
   -4.7300   14.9190    1.3440 N   0  0  0  0  0  0  0  0  0  0  0  0
   -6.7470   14.6630    0.1880 N   0  0  0  0  0  0  0  0  0  0  0  0
   -6.2100   14.9580   -1.0330 C   0  0  0  0  0  0  0  0  0  0  0  0
   -4.0580   14.8560    0.1090 C   0  0  0  0  0  0  0  0  0  0  0  0
   -6.8800   15.2540   -2.0100 O   0  0  0  0  0  0  0  0  0  0  0  0
   -4.7570   14.8680   -1.0890 C   0  0  0  0  0  0  0  0  0  0  0  0
   -2.6600   14.7640    0.0480 C   0  0  0  0  0  0  0  0  0  0  0  0
   -2.0030   14.6730   -1.2060 C   0  0  0  0  0  0  0  0  0  0  0  0
   -4.1320   14.7850   -2.3170 C   0  0  0  0  0  0  0  0  0  0  0  0
   -2.7570   14.6780   -2.4100 C   0  0  0  0  0  0  0  0  0  0  0  0
   -2.2250   14.5600   -3.8290 C   0  0  0  0  0  0  0  0  0  0  0  0
   -0.7660   14.8700   -4.1410 C   0  0  0  0  0  0  0  0  0  0  0  0
    0.2570   13.7380   -3.8860 C   0  0  2  0  0  0  0  0  0  0  0  0
   -0.2500   12.3500   -3.8110 N   0  0  0  0  0  0  0  0  0  0  0  0
    0.7120   13.9230   -2.4490 C   0  0  0  0  0  0  0  0  0  0  0  0
    1.0760   14.9710   -1.9460 O   0  0  0  0  0  0  0  0  0  0  0  0
    0.1990   11.7560   -2.6140 C   0  0  0  0  0  0  0  0  0  0  0  0
    0.6570   12.7430   -1.8040 N   0  0  0  0  0  0  0  0  0  0  0  0
   -0.5700   11.5660   -4.9600 C   0  0  0  0  0  0  0  0  0  0  0  0
    0.2130   10.5650   -2.2880 O   0  0  0  0  0  0  0  0  0  0  0  0
    0.0280   11.7680   -6.2140 C   0  0  0  0  0  0  0  0  0  0  0  0
   -1.5190   10.5330   -4.8540 C   0  0  0  0  0  0  0  0  0  0  0  0
   -0.3110   10.9710   -7.3190 C   0  0  0  0  0  0  0  0  0  0  0  0
   -1.8600    9.7350   -5.9520 C   0  0  0  0  0  0  0  0  0  0  0  0
   -1.2550    9.9570   -7.1810 C   0  0  0  0  0  0  0  0  0  0  0  0
   -1.6780    8.9720   -8.5260 Cl  0  0  0  0  0  0  0  0  0  0  0  0
  1  2  1  0
  2  3  2  0
  2  4  1  0
  4  5  1  0
  3  6  1  0
  5  7  2  0
  5  8  1  0
  6  8  2  0
  6  9  1  0
  9 10  2  0
  8 11  1  0
 10 12  1  0
 11 12  2  0
 12 13  1  0
 13 14  1  0
 15 14  1  1
 15 16  1  0
 15 17  1  0
 17 18  2  0
 16 19  1  0
 17 20  1  0
 19 20  1  0
 16 21  1  0
 19 22  2  0
 21 23  2  0
 21 24  1  0
 23 25  1  0
 24 26  2  0
 25 27  2  0
 26 27  1  0
 27 28  1  0
M  END
