mac-x0213-diamond-x0724_0_A
     RDKit          3D

 28 31  0  0  0  0  0  0  0  0999 V2000
   -0.0560   11.5750   -2.8850 O   0  0  0  0  0  0  0  0  0  0  0  0
    0.1160   12.9080   -3.0400 C   0  0  0  0  0  0  0  0  0  0  0  0
    0.1700   13.7550   -2.1360 N   0  0  0  0  0  0  0  0  0  0  0  0
    0.1970   13.4900   -4.4120 C   0  0  0  0  0  0  0  0  0  0  0  0
   -0.0060   13.4890   -0.7530 C   0  0  0  0  0  0  0  0  0  0  0  0
   -1.2480   13.9440   -4.7470 C   0  0  0  0  0  0  0  0  0  0  0  0
    1.0930   14.7530   -4.4370 C   0  0  0  0  0  0  0  0  0  0  0  0
   -0.6840   14.7860   -0.3920 C   0  0  0  0  0  0  0  0  0  0  0  0
   -1.1480   15.4220   -4.9620 C   0  0  0  0  0  0  0  0  0  0  0  0
    0.1600   15.8740   -4.7930 C   0  0  0  0  0  0  0  0  0  0  0  0
   -2.1730   16.3000   -5.2990 C   0  0  0  0  0  0  0  0  0  0  0  0
    0.4680   17.2170   -4.9590 C   0  0  0  0  0  0  0  0  0  0  0  0
   -2.1970   14.7290   -0.3220 C   0  0  0  0  0  0  0  0  0  0  0  0
   -1.8620   17.6510   -5.4720 C   0  0  0  0  0  0  0  0  0  0  0  0
   -0.5510   18.1010   -5.3030 C   0  0  0  0  0  0  0  0  0  0  0  0
   -2.6480   14.8300    0.9640 C   0  0  0  0  0  0  0  0  0  0  0  0
   -3.1370   14.5990   -1.3850 C   0  0  0  0  0  0  0  0  0  0  0  0
   -3.9760   14.8080    1.2580 C   0  0  0  0  0  0  0  0  0  0  0  0
   -4.5240   14.5740   -1.0830 C   0  0  0  0  0  0  0  0  0  0  0  0
   -4.9280   14.6810    0.2670 C   0  0  0  0  0  0  0  0  0  0  0  0
   -6.2560   14.6780    0.7490 N   0  0  0  0  0  0  0  0  0  0  0  0
   -7.3830   14.5600   -0.0010 N   0  0  0  0  0  0  0  0  0  0  0  0
   -6.5610   14.8050    2.0850 C   0  0  0  0  0  0  0  0  0  0  0  0
   -7.9160   14.7830    2.2290 C   0  0  0  0  0  0  0  0  0  0  0  0
   -8.3770   14.6250    0.9010 C   0  0  0  0  0  0  0  0  0  0  0  0
   -8.6920   14.9040    3.4930 C   0  0  0  0  0  0  0  0  0  0  0  0
   -8.3340   13.7880    4.3670 N   0  0  0  0  0  0  0  0  0  0  0  0
   -8.7510   14.0370    5.7400 C   0  0  0  0  0  0  0  0  0  0  0  0
  1  2  1  0
  2  3  2  3
  2  4  1  0
  3  5  1  0
  4  6  1  0
  4  7  1  0
  5  8  1  0
  6  9  1  0
  7 10  1  0
  9 10  2  0
  9 11  1  0
 10 12  1  0
  8 13  1  0
 11 14  2  0
 12 15  2  0
 14 15  1  0
 13 16  2  0
 13 17  1  0
 16 18  1  0
 17 19  2  0
 18 20  2  0
 19 20  1  0
 20 21  1  0
 21 22  1  0
 21 23  1  0
 23 24  2  0
 22 25  2  0
 24 25  1  0
 24 26  1  0
 26 27  1  0
 27 28  1  0
M  END
