mac-x0587-diamond-x0900_0_A
     RDKit          3D

 20 21  0  0  0  0  0  0  0  0999 V2000
    0.1130   16.3290   -4.3880 C   0  0  0  0  0  0  0  0  0  0  0  0
   -0.3860   14.9960   -3.8430 C   0  0  2  0  0  0  0  0  0  0  0  0
    0.1360   13.6730   -5.0240 S   0  0  0  0  0  0  0  0  0  0  0  0
   -1.9160   15.0470   -3.6010 C   0  0  0  0  0  0  0  0  0  0  0  0
   -0.4330   12.2410   -4.0800 C   0  0  0  0  0  0  0  0  0  0  0  0
   -2.7140   15.2040   -4.5270 O   0  0  0  0  0  0  0  0  0  0  0  0
   -2.3640   14.9260   -2.2930 N   0  0  0  0  0  0  0  0  0  0  0  0
    0.5760   11.6230   -3.1510 C   0  0  0  0  0  0  0  0  0  0  0  0
   -3.6590   15.3210   -1.7790 C   0  0  0  0  0  0  0  0  0  0  0  0
   -1.5280   14.7450   -1.1820 C   0  0  0  0  0  0  0  0  0  0  0  0
    0.6100   10.4550   -2.8150 O   0  0  0  0  0  0  0  0  0  0  0  0
    1.4900   12.5140   -2.7000 O   0  0  0  0  0  0  0  0  0  0  0  0
   -0.3260   14.8790   -1.0820 O   0  0  0  0  0  0  0  0  0  0  0  0
   -3.6810   14.6540   -0.4040 C   0  0  2  0  0  0  0  0  0  0  0  0
   -2.3270   14.3750   -0.1180 N   0  0  0  0  0  0  0  0  0  0  0  0
   -4.5430   13.5510   -0.4520 N   0  0  0  0  0  0  0  0  0  0  0  0
   -4.3150   15.4650    0.7030 C   0  0  0  0  0  0  0  0  0  0  0  0
   -5.8130   14.0340   -0.4520 C   0  0  0  0  0  0  0  0  0  0  0  0
   -5.7810   15.2460    0.3760 C   0  0  0  0  0  0  0  0  0  0  0  0
   -6.7880   13.6010   -1.0230 O   0  0  0  0  0  0  0  0  0  0  0  0
  2  1  1  6
  2  3  1  0
  2  4  1  0
  3  5  1  0
  4  6  2  0
  4  7  1  0
  5  8  1  0
  7  9  1  0
  7 10  1  0
  8 11  2  0
  8 12  1  0
 10 13  2  0
 14  9  1  6
 10 15  1  0
 14 15  1  0
 14 16  1  0
 14 17  1  0
 16 18  1  0
 17 19  1  0
 18 19  1  0
 18 20  2  0
M  END
