mac-x0564-mac-x0179
     RDKit          3D

 28 32  0  0  0  0  0  0  0  0999 V2000
    0.3640   12.8820   -2.2100 N   0  0  0  0  0  0  0  0  0  0  0  0
    1.3700   12.6080   -3.0850 C   0  0  0  0  0  0  0  0  0  0  0  0
    2.4580   12.1820   -2.7780 O   0  0  0  0  0  0  0  0  0  0  0  0
   -0.3350   13.8910   -2.5570 C   0  0  0  0  0  0  0  0  0  0  0  0
    1.0120   12.8450   -4.5760 C   0  0  0  0  0  0  0  0  0  0  0  0
   -1.5850   14.3220   -2.0490 C   0  0  0  0  0  0  0  0  0  0  0  0
    0.0910   14.6040   -3.6530 N   0  0  0  0  0  0  0  0  0  0  0  0
   -2.5250   14.6050   -2.9870 C   0  0  0  0  0  0  0  0  0  0  0  0
   -0.8640   14.8750   -4.4670 C   0  0  0  0  0  0  0  0  0  0  0  0
   -2.0670   14.4750   -0.7870 O   0  0  0  0  0  0  0  0  0  0  0  0
    0.3720   11.7410   -5.2960 N   0  0  0  0  0  0  0  0  0  0  0  0
   -2.1850   14.5280   -4.2940 N   0  0  0  0  0  0  0  0  0  0  0  0
   -3.3860   14.8270   -0.9780 C   0  0  0  0  0  0  0  0  0  0  0  0
   -3.6990   14.9090   -2.3370 C   0  0  0  0  0  0  0  0  0  0  0  0
    0.8410   11.3990   -6.5110 C   0  0  0  0  0  0  0  0  0  0  0  0
   -0.8570   11.1630   -5.0690 C   0  0  0  0  0  0  0  0  0  0  0  0
    1.8080   11.8310   -7.0460 O   0  0  0  0  0  0  0  0  0  0  0  0
   -1.6480   11.3450   -4.1700 O   0  0  0  0  0  0  0  0  0  0  0  0
   -4.9850   15.2350   -2.7360 C   0  0  0  0  0  0  0  0  0  0  0  0
   -4.3190   15.0650    0.0190 C   0  0  0  0  0  0  0  0  0  0  0  0
   -0.0300   10.3620   -7.0550 C   0  0  0  0  0  0  0  0  0  0  0  0
   -1.0740   10.2130   -6.1710 C   0  0  0  0  0  0  0  0  0  0  0  0
   -5.9430   15.4720   -1.7590 C   0  0  0  0  0  0  0  0  0  0  0  0
   -5.6070   15.3820   -0.4130 C   0  0  0  0  0  0  0  0  0  0  0  0
    0.0830    9.6160   -8.2110 C   0  0  0  0  0  0  0  0  0  0  0  0
   -2.0870    9.2920   -6.3940 C   0  0  0  0  0  0  0  0  0  0  0  0
   -0.9270    8.6780   -8.4610 C   0  0  0  0  0  0  0  0  0  0  0  0
   -2.0000    8.5200   -7.5600 C   0  0  0  0  0  0  0  0  0  0  0  0
  1  2  1  0
  2  3  2  0
  1  4  2  3
  2  5  1  0
  4  6  1  0
  4  7  1  0
  6  8  2  0
  7  9  2  0
  6 10  1  0
  5 11  1  0
  8 12  1  0
  9 12  1  0
 10 13  1  0
  8 14  1  0
 13 14  2  0
 11 15  1  0
 11 16  1  0
 15 17  2  0
 16 18  2  0
 14 19  1  0
 13 20  1  0
 15 21  1  0
 16 22  1  0
 21 22  2  0
 19 23  2  0
 20 24  2  0
 23 24  1  0
 21 25  1  0
 22 26  1  0
 25 27  2  0
 26 28  2  0
 27 28  1  0
M  END
