mac-x0138-diamond-x0969_0_A
     RDKit          3D

 17 19  0  0  0  0  0  0  0  0999 V2000
   -1.8920   15.4710   -3.1280 C   0  0  0  0  0  0  0  0  0  0  0  0
   -2.5150   15.4170   -1.7960 N   0  0  0  0  0  0  0  0  0  0  0  0
   -4.0160   15.4840   -1.8580 C   0  0  0  0  0  0  0  0  0  0  0  0
   -2.2740   14.1300   -1.1600 C   0  0  2  0  0  0  0  0  0  0  0  0
   -4.6080   14.6580   -0.6900 C   0  0  2  0  0  0  0  0  0  0  0  0
   -3.3910   13.9400   -0.1200 C   0  0  2  0  0  0  0  0  0  0  0  0
   -0.9160   14.1340   -0.5970 N   0  0  0  0  0  0  0  0  0  0  0  0
   -2.8890   14.4760    1.2130 C   0  0  2  0  0  0  0  0  0  0  0  0
   -0.6670   14.9680    0.5340 C   0  0  2  0  0  0  0  0  0  0  0  0
   -5.8060   13.8740   -1.0560 N   0  0  0  0  0  0  0  0  0  0  0  0
   -5.0670   15.3960    0.5080 N   0  0  0  0  0  0  0  0  0  0  0  0
   -3.9140   15.1380    1.9890 N   0  0  0  0  0  0  0  0  0  0  0  0
   -0.1780   14.0940    1.5310 N   0  0  0  0  0  0  0  0  0  0  0  0
   -1.8830   15.4880    1.0580 N   0  0  0  0  0  0  0  0  0  0  0  0
   -6.1070   14.6730    0.8630 C   0  0  0  0  0  0  0  0  0  0  0  0
   -6.4530   13.6710    0.0070 N   0  0  0  0  0  0  0  0  0  0  0  0
   -6.7950   14.8970    2.0200 N   0  0  0  0  0  0  0  0  0  0  0  0
  1  2  1  0
  2  3  1  0
  2  4  1  0
  5  3  1  6
  4  6  1  0
  5  6  1  0
  4  7  1  1
  6  8  1  1
  7  9  1  0
  5 10  1  0
  5 11  1  0
  8 12  1  6
  9 13  1  1
  8 14  1  0
  9 14  1  0
 11 15  2  0
 10 16  2  0
 15 16  1  0
 15 17  1  0
M  END
