mac-x0178-mac-x0379
     RDKit          3D

 21 22  0  0  0  0  0  0  0  0999 V2000
   -0.4040   17.9880   -6.4350 N   0  0  0  0  0  0  0  0  0  0  0  0
   -1.8050   17.4480   -5.6930 S   0  0  0  0  0  0  0  0  0  0  0  0
   -2.7200   17.1150   -6.7510 O   0  0  0  0  0  0  0  0  0  0  0  0
   -2.0860   18.4310   -4.6830 O   0  0  0  0  0  0  0  0  0  0  0  0
   -1.2600   15.9510   -4.8950 C   0  0  0  0  0  0  0  0  0  0  0  0
   -0.5490   16.1170   -3.7370 C   0  0  0  0  0  0  0  0  0  0  0  0
   -1.5200   14.6460   -5.3710 C   0  0  0  0  0  0  0  0  0  0  0  0
   -0.1030   14.9940   -3.0730 C   0  0  0  0  0  0  0  0  0  0  0  0
   -1.0320   13.5220   -4.6800 C   0  0  0  0  0  0  0  0  0  0  0  0
   -0.3030   13.7040   -3.5070 C   0  0  0  0  0  0  0  0  0  0  0  0
    0.5310   15.2140   -1.9520 O   0  0  0  0  0  0  0  0  0  0  0  0
    0.2320   12.5480   -2.7480 C   0  0  0  0  0  0  0  0  0  0  0  0
   -0.4270   15.8070   -1.0660 C   0  0  0  0  0  0  0  0  0  0  0  0
    1.0370   12.6400   -1.8400 O   0  0  0  0  0  0  0  0  0  0  0  0
   -0.2330   11.3530   -3.1410 O   0  0  0  0  0  0  0  0  0  0  0  0
   -1.9010   15.5170   -1.3210 C   0  0  0  0  0  0  0  0  0  0  0  0
   -2.6920   15.2140   -2.4350 C   0  0  0  0  0  0  0  0  0  0  0  0
   -2.9120   15.5650    0.0550 S   0  0  0  0  0  0  0  0  0  0  0  0
   -4.2830   15.1990   -0.8990 C   0  0  0  0  0  0  0  0  0  0  0  0
   -4.0520   15.0350   -2.1800 N   0  0  0  0  0  0  0  0  0  0  0  0
   -5.6100   15.0940   -0.2470 C   0  0  0  0  0  0  0  0  0  0  0  0
  2  1  1  0
  2  3  2  0
  2  4  2  0
  2  5  1  0
  5  6  2  0
  5  7  1  0
  6  8  1  0
  7  9  2  0
  8 10  2  0
  9 10  1  0
  8 11  1  0
 10 12  1  0
 11 13  1  0
 12 14  2  0
 12 15  1  0
 13 16  1  0
 16 17  2  0
 16 18  1  0
 18 19  1  0
 17 20  1  0
 19 20  2  0
 19 21  1  0
M  END
