mac-x0358-diamond-x0681_0_A
     RDKit          3D

 23 25  0  0  0  0  0  0  0  0999 V2000
    1.7950   12.8090   -2.3380 O   0  0  0  0  0  0  0  0  0  0  0  0
    1.1150   12.0820   -3.2470 C   0  0  0  0  0  0  0  0  0  0  0  0
    0.5970   11.0320   -2.9070 O   0  0  0  0  0  0  0  0  0  0  0  0
    1.0680   12.7250   -4.6150 C   0  0  0  0  0  0  0  0  0  0  0  0
   -0.3570   13.0940   -4.8190 C   0  0  0  0  0  0  0  0  0  0  0  0
   -1.0800   12.9720   -5.9880 C   0  0  0  0  0  0  0  0  0  0  0  0
   -0.9860   13.5590   -3.7150 C   0  0  0  0  0  0  0  0  0  0  0  0
   -0.4500   12.4360   -7.0680 O   0  0  0  0  0  0  0  0  0  0  0  0
   -2.4310   13.3670   -6.0480 C   0  0  0  0  0  0  0  0  0  0  0  0
   -2.3020   13.9080   -3.7150 C   0  0  0  0  0  0  0  0  0  0  0  0
   -2.7580   14.2370   -2.4410 N   0  0  0  0  0  0  0  0  0  0  0  0
   -3.0570   13.8470   -4.8920 C   0  0  0  0  0  0  0  0  0  0  0  0
   -3.7150   14.9030   -1.9330 C   0  0  0  0  0  0  0  0  0  0  0  0
   -4.6820   15.6350   -2.5360 N   0  0  0  0  0  0  0  0  0  0  0  0
   -3.7340   14.6260   -0.4230 C   0  0  2  0  0  0  0  0  0  0  0  0
   -4.7270   13.4990   -0.3010 C   0  0  0  0  0  0  0  0  0  0  0  0
   -4.1030   15.8090    0.4800 C   0  0  0  0  0  0  0  0  0  0  0  0
   -5.6850   13.4640    0.6640 N   0  0  0  0  0  0  0  0  0  0  0  0
   -4.5410   15.2650    1.8320 C   0  0  0  0  0  0  0  0  0  0  0  0
   -4.8310   12.4340   -1.0770 N   0  0  0  0  0  0  0  0  0  0  0  0
   -5.8390   14.4850    1.6570 C   0  0  0  0  0  0  0  0  0  0  0  0
   -6.4320   12.3380    0.5100 C   0  0  0  0  0  0  0  0  0  0  0  0
   -5.8860   11.7120   -0.5810 C   0  0  0  0  0  0  0  0  0  0  0  0
  1  2  1  0
  2  3  2  0
  2  4  1  0
  4  5  1  0
  5  6  2  0
  5  7  1  0
  6  8  1  0
  6  9  1  0
  7 10  2  0
 10 11  1  0
  9 12  2  0
 10 12  1  0
 11 13  2  3
 13 14  1  0
 15 13  1  6
 15 16  1  0
 15 17  1  0
 16 18  1  0
 17 19  1  0
 16 20  2  0
 18 21  1  0
 19 21  1  0
 18 22  1  0
 20 23  1  0
 22 23  2  0
M  END
