mac-x0328-diamond-x0587_0_A
     RDKit          3D

 22 23  0  0  0  0  0  0  0  0999 V2000
   -1.9720   14.6200   -4.2590 O   0  0  0  0  0  0  0  0  0  0  0  0
   -2.1470   14.6750   -2.9340 C   0  0  0  0  0  0  0  0  0  0  0  0
   -1.1990   14.5410   -2.1710 O   0  0  0  0  0  0  0  0  0  0  0  0
   -3.5540   14.9170   -2.5140 C   0  0  0  0  0  0  0  0  0  0  0  0
   -3.8910   15.1050   -1.2110 C   0  0  0  0  0  0  0  0  0  0  0  0
   -4.5980   14.9470   -3.4320 C   0  0  0  0  0  0  0  0  0  0  0  0
   -5.1680   15.3480   -0.7540 C   0  0  0  0  0  0  0  0  0  0  0  0
   -5.9210   15.1700   -2.9840 C   0  0  0  0  0  0  0  0  0  0  0  0
   -2.9920   15.0150   -0.3000 O   0  0  0  0  0  0  0  0  0  0  0  0
   -6.1930   15.3780   -1.6440 C   0  0  0  0  0  0  0  0  0  0  0  0
   -3.5870   13.7540    0.0270 C   0  0  2  0  0  0  0  0  0  0  0  0
   -7.4490   15.6030   -1.1740 O   0  0  0  0  0  0  0  0  0  0  0  0
   -3.7290   13.0240   -1.1320 F   0  0  0  0  0  0  0  0  0  0  0  0
   -4.9480   14.0420    0.6540 C   0  0  0  0  0  0  0  0  0  0  0  0
   -6.1540   13.7070    0.0700 N   0  0  0  0  0  0  0  0  0  0  0  0
   -4.8430   14.6480    1.8250 N   0  0  0  0  0  0  0  0  0  0  0  0
   -7.2750   14.0290    0.7820 C   0  0  0  0  0  0  0  0  0  0  0  0
   -5.9690   14.9280    2.4720 C   0  0  0  0  0  0  0  0  0  0  0  0
   -7.2200   14.6470    2.0160 C   0  0  0  0  0  0  0  0  0  0  0  0
   -8.3290   15.0310    2.8910 C   0  0  0  0  0  0  0  0  0  0  0  0
   -8.0140   15.1110    4.2210 N   0  0  0  0  0  0  0  0  0  0  0  0
   -9.4550   15.2660    2.4720 O   0  0  0  0  0  0  0  0  0  0  0  0
  1  2  1  0
  2  3  2  0
  2  4  1  0
  4  5  2  0
  4  6  1  0
  5  7  1  0
  6  8  2  0
  5  9  1  0
  7 10  2  0
  8 10  1  0
  9 11  1  0
 10 12  1  0
 11 13  1  6
 11 14  1  0
 14 15  2  0
 14 16  1  0
 15 17  1  0
 16 18  2  0
 17 19  2  0
 18 19  1  0
 19 20  1  0
 20 21  1  0
 20 22  2  0
M  END
