mac-x0572-diamond-x1018_0_A
     RDKit          3D

 13 14  0  0  0  0  0  0  0  0999 V2000
   -7.9250   14.5270    3.1700 C   0  0  0  0  0  0  0  0  0  0  0  0
   -7.1870   14.6310    1.8550 C   0  0  0  0  0  0  0  0  0  0  0  0
   -5.8300   14.7320    2.0250 N   0  0  0  0  0  0  0  0  0  0  0  0
   -7.8000   14.6280    0.6590 C   0  0  0  0  0  0  0  0  0  0  0  0
   -9.1640   14.5280    0.4670 O   0  0  0  0  0  0  0  0  0  0  0  0
   -6.9290   14.7520   -0.5620 C   0  0  0  0  0  0  0  0  0  0  0  0
   -5.0560   15.0640    1.0440 C   0  0  0  0  0  0  0  0  0  0  0  0
   -7.3330   14.3660   -1.6570 O   0  0  0  0  0  0  0  0  0  0  0  0
   -5.5580   15.3810   -0.3530 C   0  0  1  0  0  0  0  0  0  0  0  0
   -3.6070   15.1290    1.3140 C   0  0  0  0  0  0  0  0  0  0  0  0
   -2.7650   15.0800    0.2840 C   0  0  0  0  0  0  0  0  0  0  0  0
   -4.5190   15.0940   -1.4000 C   0  0  0  0  0  0  0  0  0  0  0  0
   -3.2220   14.9630   -1.0830 C   0  0  0  0  0  0  0  0  0  0  0  0
  1  2  1  0
  2  3  1  0
  2  4  2  0
  4  5  1  0
  4  6  1  0
  3  7  2  0
  6  8  2  0
  6  9  1  0
  7  9  1  0
  7 10  1  0
 10 11  2  0
  9 12  1  6
 11 13  1  0
 12 13  2  0
M  END
