mac-x0188-mac-x0564
     RDKit          3D

 17 19  0  0  0  0  0  0  0  0999 V2000
    1.4970   13.4140   -5.1560 C   0  0  0  0  0  0  0  0  0  0  0  0
    0.3370   13.0120   -4.2560 C   0  0  2  0  0  0  0  0  0  0  0  0
   -0.8050   12.7060   -5.0510 O   0  0  0  0  0  0  0  0  0  0  0  0
   -0.1820   14.1090   -3.3450 C   0  0  2  0  0  0  0  0  0  0  0  0
    0.6250   14.2420   -2.0690 C   0  0  0  0  0  0  0  0  0  0  0  0
   -1.9060   12.6450   -4.0910 N   0  0  0  0  0  0  0  0  0  0  0  0
   -1.6550   13.7480   -3.1470 C   0  0  2  0  0  0  0  0  0  0  0  0
    1.0230   15.3020   -1.6540 O   0  0  0  0  0  0  0  0  0  0  0  0
    0.9070   13.1280   -1.3570 O   0  0  0  0  0  0  0  0  0  0  0  0
   -2.5480   14.8150   -3.6820 C   0  0  0  0  0  0  0  0  0  0  0  0
   -2.1120   13.4010   -1.7020 C   0  0  0  0  0  0  0  0  0  0  0  0
   -3.1780   15.6880   -2.9490 C   0  0  0  0  0  0  0  0  0  0  0  0
   -2.3330   14.6350   -0.7850 C   0  0  2  0  0  0  0  0  0  0  0  0
   -3.1720   14.3210    0.4730 C   0  0  0  0  0  0  0  0  0  0  0  0
   -3.0980   15.7680   -1.4750 C   0  0  2  0  0  0  0  0  0  0  0  0
   -4.4480   15.7710   -0.8360 C   0  0  0  0  0  0  0  0  0  0  0  0
   -4.4860   14.9880    0.2250 C   0  0  0  0  0  0  0  0  0  0  0  0
  2  1  1  6
  2  3  1  0
  2  4  1  0
  4  5  1  1
  3  6  1  0
  4  7  1  0
  6  7  1  0
  5  8  2  0
  5  9  1  0
  7 10  1  6
  7 11  1  0
 10 12  2  0
 13 11  1  6
 13 14  1  0
 15 12  1  6
 13 15  1  0
 15 16  1  0
 14 17  1  0
 16 17  2  0
M  END
