mac-x0527-mac-x0375
     RDKit          3D

 27 29  0  0  0  0  0  0  0  0999 V2000
   -3.8910   15.3580   -3.6000 O   0  0  0  0  0  0  0  0  0  0  0  0
   -3.1920   15.1680   -2.6080 C   0  0  0  0  0  0  0  0  0  0  0  0
   -1.8480   15.0220   -2.8070 N   0  0  0  0  0  0  0  0  0  0  0  0
   -3.8200   15.1040   -1.2630 C   0  0  0  0  0  0  0  0  0  0  0  0
   -1.1640   14.4970   -3.9620 C   0  0  0  0  0  0  0  0  0  0  0  0
   -5.2030   15.1660   -1.1830 C   0  0  0  0  0  0  0  0  0  0  0  0
   -3.0380   14.9860   -0.1550 N   0  0  0  0  0  0  0  0  0  0  0  0
   -1.5030   13.0400   -4.2000 C   0  0  0  0  0  0  0  0  0  0  0  0
   -5.8660   15.1110   -0.0040 N   0  0  0  0  0  0  0  0  0  0  0  0
   -3.7050   14.9330    1.0200 C   0  0  0  0  0  0  0  0  0  0  0  0
   -2.8460   12.6600   -4.0590 C   0  0  0  0  0  0  0  0  0  0  0  0
   -0.6110   12.0180   -4.5460 C   0  0  0  0  0  0  0  0  0  0  0  0
   -5.0850   14.9940    1.0940 C   0  0  0  0  0  0  0  0  0  0  0  0
    0.8190   12.1070   -4.7690 C   0  0  2  0  0  0  0  0  0  0  0  0
   -3.2690   11.3430   -4.2520 C   0  0  0  0  0  0  0  0  0  0  0  0
   -1.0550   10.7120   -4.7290 C   0  0  0  0  0  0  0  0  0  0  0  0
    1.8360   12.6770   -3.7780 C   0  0  0  0  0  0  0  0  0  0  0  0
    0.9890   11.8200   -6.1640 O   0  0  0  0  0  0  0  0  0  0  0  0
   -2.3630   10.3680   -4.5880 C   0  0  0  0  0  0  0  0  0  0  0  0
    1.4880   13.8660   -3.2390 O   0  0  0  0  0  0  0  0  0  0  0  0
    2.8480   12.1280   -3.4230 O   0  0  0  0  0  0  0  0  0  0  0  0
   -0.1640   11.1100   -6.5120 C   0  0  0  0  0  0  0  0  0  0  0  0
   -0.0200    9.8120   -7.0400 C   0  0  0  0  0  0  0  0  0  0  0  0
   -1.4660   11.5970   -6.3470 C   0  0  0  0  0  0  0  0  0  0  0  0
   -1.1410    9.0380   -7.3630 C   0  0  0  0  0  0  0  0  0  0  0  0
   -2.5850   10.8190   -6.6750 C   0  0  0  0  0  0  0  0  0  0  0  0
   -2.4230    9.5370   -7.1780 C   0  0  0  0  0  0  0  0  0  0  0  0
  1  2  2  0
  2  3  1  0
  2  4  1  0
  3  5  1  0
  4  6  2  0
  4  7  1  0
  5  8  1  0
  6  9  1  0
  7 10  2  0
  8 11  2  0
  8 12  1  0
  9 13  2  0
 10 13  1  0
 12 14  1  0
 11 15  1  0
 12 16  2  0
 14 17  1  0
 14 18  1  6
 15 19  2  0
 16 19  1  0
 17 20  1  0
 17 21  2  0
 18 22  1  0
 22 23  2  0
 22 24  1  0
 23 25  1  0
 24 26  2  0
 25 27  2  0
 26 27  1  0
M  END
