mac-x0347-diamond-x0864_0_A
     RDKit          3D

 26 28  0  0  0  0  0  0  0  0999 V2000
    0.8900   14.6000   -3.2440 O   0  0  0  0  0  0  0  0  0  0  0  0
   -0.1510   13.8300   -2.8650 C   0  0  0  0  0  0  0  0  0  0  0  0
   -0.0660   12.6000   -2.7140 N   0  0  0  0  0  0  0  0  0  0  0  0
   -1.3990   14.4580   -2.7450 C   0  0  0  0  0  0  0  0  0  0  0  0
    1.0990   11.9370   -3.0590 C   0  0  1  0  0  0  0  0  0  0  0  0
   -2.1310   14.3600   -1.5920 C   0  0  0  0  0  0  0  0  0  0  0  0
   -1.8840   15.1260   -3.8460 C   0  0  0  0  0  0  0  0  0  0  0  0
    1.1370   12.3410   -4.5590 C   0  0  0  0  0  0  0  0  0  0  0  0
    2.2310   12.3760   -2.3810 O   0  0  0  0  0  0  0  0  0  0  0  0
   -3.3770   14.9340   -1.5720 C   0  0  0  0  0  0  0  0  0  0  0  0
   -3.0880   15.7040   -3.8680 N   0  0  0  0  0  0  0  0  0  0  0  0
   -3.7980   15.5770   -2.7220 C   0  0  0  0  0  0  0  0  0  0  0  0
   -4.2200   14.8540   -0.4060 C   0  0  0  0  0  0  0  0  0  0  0  0
    0.1260   11.6580   -5.3860 N   0  0  0  0  0  0  0  0  0  0  0  0
   -3.8660   15.4650    0.7970 C   0  0  0  0  0  0  0  0  0  0  0  0
   -5.4200   14.1410   -0.4840 C   0  0  0  0  0  0  0  0  0  0  0  0
   -1.0600   11.1640   -4.8480 C   0  0  0  0  0  0  0  0  0  0  0  0
    0.5780   11.2450   -6.6180 C   0  0  0  0  0  0  0  0  0  0  0  0
    1.5570   11.7220   -7.1500 O   0  0  0  0  0  0  0  0  0  0  0  0
   -4.7000   15.3640    1.8960 C   0  0  0  0  0  0  0  0  0  0  0  0
   -6.2560   14.0360    0.6170 C   0  0  0  0  0  0  0  0  0  0  0  0
   -1.7470   10.1960   -5.4730 C   0  0  0  0  0  0  0  0  0  0  0  0
   -0.1530   10.1480   -7.2820 C   0  0  0  0  0  0  0  0  0  0  0  0
   -5.8930   14.6500    1.8100 C   0  0  0  0  0  0  0  0  0  0  0  0
   -1.2610    9.6530   -6.7210 C   0  0  0  0  0  0  0  0  0  0  0  0
   -2.2110    8.2610   -7.5150 Br  0  0  0  0  0  0  0  0  0  0  0  0
  1  2  1  0
  2  3  2  3
  2  4  1  0
  3  5  1  0
  4  6  2  0
  4  7  1  0
  5  8  1  0
  5  9  1  1
  6 10  1  0
  7 11  2  0
 10 12  2  0
 11 12  1  0
 10 13  1  0
  8 14  1  0
 13 15  2  0
 13 16  1  0
 14 17  1  0
 14 18  1  0
 18 19  2  0
 15 20  1  0
 16 21  2  0
 17 22  2  0
 18 23  1  0
 20 24  2  0
 21 24  1  0
 22 25  1  0
 23 25  2  0
 25 26  1  0
M  END
