mac-x0348-mac-x0590
     RDKit          3D

 31 35  0  0  0  0  0  0  0  0999 V2000
    0.7450   18.4850   -5.8230 C   0  0  0  0  0  0  0  0  0  0  0  0
    0.0310   17.3880   -5.2180 N   0  0  0  0  0  0  0  0  0  0  0  0
    0.5290   16.5790   -4.2360 C   0  0  0  0  0  0  0  0  0  0  0  0
   -1.2450   17.0000   -5.5390 C   0  0  0  0  0  0  0  0  0  0  0  0
   -0.4430   15.6360   -3.9000 C   0  0  0  0  0  0  0  0  0  0  0  0
   -1.5530   15.9030   -4.7490 C   0  0  0  0  0  0  0  0  0  0  0  0
   -2.1550   17.5120   -6.4530 C   0  0  0  0  0  0  0  0  0  0  0  0
   -0.4600   14.5110   -2.8540 C   0  0  2  0  0  0  0  0  0  0  0  0
   -2.8080   15.2850   -4.8950 C   0  0  0  0  0  0  0  0  0  0  0  0
   -3.3950   16.8760   -6.5800 C   0  0  0  0  0  0  0  0  0  0  0  0
   -0.3730   12.9700   -3.3020 C   0  0  1  0  0  0  0  0  0  0  0  0
   -3.7170   15.7750   -5.8160 C   0  0  0  0  0  0  0  0  0  0  0  0
   -1.5080   14.9560   -1.8650 N   0  0  0  0  0  0  0  0  0  0  0  0
    0.0440   12.1520   -2.0800 C   0  0  0  0  0  0  0  0  0  0  0  0
   -1.7540   12.5080   -3.8100 C   0  0  0  0  0  0  0  0  0  0  0  0
   -2.9370   15.1160   -2.2500 C   0  0  0  0  0  0  0  0  0  0  0  0
   -1.3580   14.5110   -0.5480 C   0  0  2  0  0  0  0  0  0  0  0  0
    0.6800   12.3990   -4.2390 C   0  0  1  0  0  0  0  0  0  0  0  0
    0.3390   12.6220   -1.0050 O   0  0  0  0  0  0  0  0  0  0  0  0
    0.1060   10.8000   -2.2570 O   0  0  0  0  0  0  0  0  0  0  0  0
   -3.9120   15.4810   -1.1680 N   0  0  0  0  0  0  0  0  0  0  0  0
   -2.1700   15.2290    0.4680 C   0  0  1  0  0  0  0  0  0  0  0  0
   -0.0500   14.7940   -0.0040 N   0  0  0  0  0  0  0  0  0  0  0  0
    0.8270   13.0300   -5.5890 C   0  0  0  0  0  0  0  0  0  0  0  0
    2.0100   12.4190   -3.6880 O   0  0  0  0  0  0  0  0  0  0  0  0
   -3.6140   14.8820    0.1230 C   0  0  1  0  0  0  0  0  0  0  0  0
   -1.6440   14.6490    1.7100 N   0  0  0  0  0  0  0  0  0  0  0  0
   -0.2660   14.2930    1.3410 C   0  0  0  0  0  0  0  0  0  0  0  0
    1.9930   12.2190   -6.0240 C   0  0  0  0  0  0  0  0  0  0  0  0
    2.8870   12.2500   -4.7970 C   0  0  0  0  0  0  0  0  0  0  0  0
   -4.5810   15.4040    1.0820 N   0  0  0  0  0  0  0  0  0  0  0  0
  1  2  1  0
  2  3  1  0
  2  4  1  0
  3  5  2  0
  4  6  2  0
  5  6  1  0
  4  7  1  0
  8  5  1  6
  6  9  1  0
  7 10  2  0
  8 11  1  0
  9 12  2  0
 10 12  1  0
  8 13  1  0
 11 14  1  0
 11 15  1  6
 13 16  1  0
 13 17  1  0
 11 18  1  0
 14 19  2  0
 14 20  1  0
 16 21  1  0
 17 22  1  0
 17 23  1  1
 18 24  1  6
 18 25  1  0
 21 26  1  0
 22 26  1  0
 22 27  1  1
 23 28  1  0
 27 28  1  0
 24 29  1  0
 25 30  1  0
 29 30  1  0
 26 31  1  1
M  END
