mac-x0345-mac-x0206
     RDKit          3D

 18 19  0  0  0  0  0  0  0  0999 V2000
   -8.8350   14.4860   -0.3430 C   0  0  0  0  0  0  0  0  0  0  0  0
   -7.3870   14.8110   -0.1510 C   0  0  0  0  0  0  0  0  0  0  0  0
   -6.6820   15.0750   -1.2940 N   0  0  0  0  0  0  0  0  0  0  0  0
   -6.8100   14.8350    1.1240 C   0  0  0  0  0  0  0  0  0  0  0  0
   -7.7710   14.4660    2.7100 Br  0  0  0  0  0  0  0  0  0  0  0  0
   -5.4670   15.1590    1.2500 C   0  0  0  0  0  0  0  0  0  0  0  0
   -5.3710   15.3660   -1.1230 C   0  0  0  0  0  0  0  0  0  0  0  0
   -4.4890   15.5820   -2.1610 N   0  0  0  0  0  0  0  0  0  0  0  0
   -4.7480   15.4310    0.1080 C   0  0  0  0  0  0  0  0  0  0  0  0
   -3.6430   14.6540   -1.9380 C   0  0  0  0  0  0  0  0  0  0  0  0
   -2.4770   14.3060   -2.5800 N   0  0  0  0  0  0  0  0  0  0  0  0
   -4.1700   13.8970   -0.7410 C   0  0  0  0  0  0  0  0  0  0  0  0
   -5.3700   13.1550   -0.8460 C   0  0  0  0  0  0  0  0  0  0  0  0
   -3.5070   13.9360    0.4930 C   0  0  0  0  0  0  0  0  0  0  0  0
   -6.0850   13.0580   -2.0130 O   0  0  0  0  0  0  0  0  0  0  0  0
   -5.8990   12.4830    0.2530 C   0  0  0  0  0  0  0  0  0  0  0  0
   -4.0460   13.2600    1.5890 C   0  0  0  0  0  0  0  0  0  0  0  0
   -5.2370   12.5400    1.4760 C   0  0  0  0  0  0  0  0  0  0  0  0
  1  2  1  0
  2  3  2  0
  2  4  1  0
  4  5  1  0
  4  6  2  0
  3  7  1  0
  7  8  1  0
  6  9  1  0
  7  9  2  0
  8 10  2  3
 10 11  1  0
 10 12  1  0
 12 13  2  0
 12 14  1  0
 13 15  1  0
 13 16  1  0
 14 17  2  0
 16 18  2  0
 17 18  1  0
M  END
