mac-x0564-mac-x0226
     RDKit          3D

 27 31  0  0  0  0  0  0  0  0999 V2000
    0.8110   13.1910   -2.6060 N   0  0  0  0  0  0  0  0  0  0  0  0
    0.4620   11.8850   -2.5470 C   0  0  0  0  0  0  0  0  0  0  0  0
    0.2070   11.0870   -1.6340 O   0  0  0  0  0  0  0  0  0  0  0  0
    0.0370   14.1960   -2.4330 C   0  0  0  0  0  0  0  0  0  0  0  0
   -1.3150   14.3800   -2.0060 C   0  0  0  0  0  0  0  0  0  0  0  0
    0.4990   15.3680   -2.9000 N   0  0  0  0  0  0  0  0  0  0  0  0
    0.4880   11.6700   -3.9990 C   0  0  0  0  0  0  0  0  0  0  0  0
   -2.1530   14.7720   -2.9650 C   0  0  0  0  0  0  0  0  0  0  0  0
   -0.3810   15.6740   -3.8450 C   0  0  0  0  0  0  0  0  0  0  0  0
   -1.9420   14.2640   -0.7960 O   0  0  0  0  0  0  0  0  0  0  0  0
    1.3490   12.4190   -4.8430 C   0  0  0  0  0  0  0  0  0  0  0  0
   -0.1870   10.8430   -4.8940 C   0  0  0  0  0  0  0  0  0  0  0  0
   -1.5450   14.9380   -4.1550 N   0  0  0  0  0  0  0  0  0  0  0  0
   -3.2590   14.6080   -1.0570 C   0  0  0  0  0  0  0  0  0  0  0  0
   -3.4280   14.9100   -2.4110 C   0  0  0  0  0  0  0  0  0  0  0  0
    1.2460   12.1130   -6.1250 N   0  0  0  0  0  0  0  0  0  0  0  0
    0.3010   11.1420   -6.1670 N   0  0  0  0  0  0  0  0  0  0  0  0
   -4.6890   15.2570   -2.8700 C   0  0  0  0  0  0  0  0  0  0  0  0
   -4.3020   14.6630   -0.1250 C   0  0  0  0  0  0  0  0  0  0  0  0
   -0.0400   10.5930   -7.4340 C   0  0  0  0  0  0  0  0  0  0  0  0
   -5.7580   15.3220   -1.9660 C   0  0  0  0  0  0  0  0  0  0  0  0
   -5.5640   15.0340   -0.6160 C   0  0  0  0  0  0  0  0  0  0  0  0
   -1.1430    9.7700   -7.6380 C   0  0  0  0  0  0  0  0  0  0  0  0
    0.7780   10.9070   -8.5120 C   0  0  0  0  0  0  0  0  0  0  0  0
   -1.4070    9.2760   -8.9240 C   0  0  0  0  0  0  0  0  0  0  0  0
    0.5240   10.4230   -9.7900 C   0  0  0  0  0  0  0  0  0  0  0  0
   -0.5740    9.6030   -9.9960 C   0  0  0  0  0  0  0  0  0  0  0  0
  1  2  1  0
  2  3  2  0
  1  4  2  3
  4  5  1  0
  4  6  1  0
  2  7  1  0
  5  8  2  0
  6  9  2  0
  5 10  1  0
  7 11  1  0
  7 12  2  0
  8 13  1  0
  9 13  1  0
 10 14  1  0
  8 15  1  0
 14 15  2  0
 11 16  2  0
 12 17  1  0
 16 17  1  0
 15 18  1  0
 14 19  1  0
 17 20  1  0
 18 21  2  0
 19 22  2  0
 21 22  1  0
 20 23  2  0
 20 24  1  0
 23 25  1  0
 24 26  2  0
 25 27  2  0
 26 27  1  0
M  END
