mac-x0527-mac-x0137
     RDKit          3D

 28 31  0  0  0  0  0  0  0  0999 V2000
   -4.0440   15.2130   -3.9090 O   0  0  0  0  0  0  0  0  0  0  0  0
   -3.1890   15.3220   -3.0380 C   0  0  0  0  0  0  0  0  0  0  0  0
   -1.8370   15.2570   -3.3170 N   0  0  0  0  0  0  0  0  0  0  0  0
   -3.5480   15.5470   -1.5610 C   0  0  1  0  0  0  0  0  0  0  0  0
   -1.2800   15.1420   -4.6550 C   0  0  0  0  0  0  0  0  0  0  0  0
   -5.0710   15.2610   -1.3970 C   0  0  0  0  0  0  0  0  0  0  0  0
   -2.6000   14.9340   -0.4680 C   0  0  2  0  0  0  0  0  0  0  0  0
   -1.1120   13.7280   -5.2040 C   0  0  0  0  0  0  0  0  0  0  0  0
   -5.4280   14.9750   -0.0130 N   0  0  0  0  0  0  0  0  0  0  0  0
   -3.3500   13.9770    0.4750 C   0  0  0  0  0  0  0  0  0  0  0  0
   -2.1790   15.8440    0.6510 C   0  0  0  0  0  0  0  0  0  0  0  0
   -1.1080   14.6320   -1.0170 C   0  0  2  0  0  0  0  0  0  0  0  0
   -2.1960   12.8360   -5.2900 C   0  0  0  0  0  0  0  0  0  0  0  0
    0.1500   13.2830   -5.6490 C   0  0  0  0  0  0  0  0  0  0  0  0
   -4.6740   14.0600    0.6500 C   0  0  0  0  0  0  0  0  0  0  0  0
   -0.8860   13.3910   -1.7480 N   0  0  0  0  0  0  0  0  0  0  0  0
   -0.0610   14.7140    0.0050 N   0  0  0  0  0  0  0  0  0  0  0  0
   -1.6720   14.9980    1.6980 N   0  0  0  0  0  0  0  0  0  0  0  0
   -2.0270   11.5380   -5.8030 C   0  0  0  0  0  0  0  0  0  0  0  0
    0.3150   11.9910   -6.1620 C   0  0  0  0  0  0  0  0  0  0  0  0
   -1.9060   13.1970   -2.7630 C   0  0  0  0  0  0  0  0  0  0  0  0
    0.3920   13.2220   -2.4580 C   0  0  0  0  0  0  0  0  0  0  0  0
   -0.4570   14.3260    1.3330 C   0  0  0  0  0  0  0  0  0  0  0  0
   -0.7690   11.1180   -6.2390 C   0  0  0  0  0  0  0  0  0  0  0  0
   -1.9680   11.7700   -3.2320 C   0  0  1  0  0  0  0  0  0  0  0  0
    0.5700   11.8120   -3.0170 C   0  0  0  0  0  0  0  0  0  0  0  0
   -2.9770   11.6560   -4.1280 F   0  0  0  0  0  0  0  0  0  0  0  0
   -0.6350   11.3220   -3.8250 C   0  0  0  0  0  0  0  0  0  0  0  0
  1  2  2  0
  2  3  1  0
  4  2  1  6
  3  5  1  0
  4  6  1  0
  4  7  1  0
  5  8  1  0
  6  9  1  0
  7 10  1  1
  7 11  1  0
  7 12  1  0
  8 13  2  0
  8 14  1  0
  9 15  1  0
 10 15  2  0
 12 16  1  1
 12 17  1  0
 11 18  1  0
 13 19  1  0
 14 20  2  0
 16 21  1  0
 16 22  1  0
 17 23  1  0
 18 23  1  0
 19 24  2  0
 20 24  1  0
 21 25  1  0
 22 26  1  0
 25 27  1  6
 25 28  1  0
 26 28  1  0
M  END
