mac-x0338-mac-x0345
     RDKit          3D

 10 10  0  0  0  0  0  0  0  0999 V2000
   -4.1310   15.3380    2.0140 N   0  0  0  0  0  0  0  0  0  0  0  0
   -5.1220   15.1870    1.1150 C   0  0  0  0  0  0  0  0  0  0  0  0
   -6.2630   14.8640    1.4560 O   0  0  0  0  0  0  0  0  0  0  0  0
   -4.7410   15.4530   -0.3250 C   0  0  1  0  0  0  0  0  0  0  0  0
   -3.4500   14.8020   -0.6570 N   0  0  0  0  0  0  0  0  0  0  0  0
   -5.8570   15.1030   -1.3270 C   0  0  0  0  0  0  0  0  0  0  0  0
   -3.0510   14.8970   -1.9630 C   0  0  0  0  0  0  0  0  0  0  0  0
   -5.3160   14.9580   -2.7100 N   0  0  0  0  0  0  0  0  0  0  0  0
   -6.2110   14.7740   -3.7710 N   0  0  0  0  0  0  0  0  0  0  0  0
   -3.9490   14.9760   -2.9520 C   0  0  0  0  0  0  0  0  0  0  0  0
  1  2  1  0
  2  3  2  0
  4  2  1  1
  4  5  1  0
  4  6  1  0
  5  7  1  0
  6  8  1  0
  8  9  1  0
  7 10  2  0
  8 10  1  0
M  END
