mac-x0394-diamond-x0905_0_A
     RDKit          3D

 21 22  0  0  0  0  0  0  0  0999 V2000
    1.0100   18.3190   -5.1500 Cl  0  0  0  0  0  0  0  0  0  0  0  0
    0.2850   16.7860   -5.0090 C   0  0  0  0  0  0  0  0  0  0  0  0
   -1.0820   16.6960   -5.2020 C   0  0  0  0  0  0  0  0  0  0  0  0
    1.0550   15.6670   -4.7130 C   0  0  0  0  0  0  0  0  0  0  0  0
    0.4440   14.4150   -4.6080 C   0  0  0  0  0  0  0  0  0  0  0  0
   -1.7080   15.4600   -5.1030 C   0  0  0  0  0  0  0  0  0  0  0  0
   -3.1920   15.3440   -5.3100 C   0  0  0  0  0  0  0  0  0  0  0  0
    1.2570   13.1840   -4.2890 C   0  0  0  0  0  0  0  0  0  0  0  0
   -0.9410   14.3270   -4.8070 C   0  0  0  0  0  0  0  0  0  0  0  0
    0.8300   12.5050   -3.0070 C   0  0  0  0  0  0  0  0  0  0  0  0
   -3.8650   14.7240   -4.0890 C   0  0  0  0  0  0  0  0  0  0  0  0
    0.1960   11.3350   -3.2360 O   0  0  0  0  0  0  0  0  0  0  0  0
    0.9910   12.8870   -1.8630 O   0  0  0  0  0  0  0  0  0  0  0  0
   -3.0090   14.8390   -2.8220 C   0  0  0  0  0  0  0  0  0  0  0  0
   -3.7890   14.9360   -1.5460 C   0  0  0  0  0  0  0  0  0  0  0  0
   -3.1740   14.9750   -0.2880 C   0  0  0  0  0  0  0  0  0  0  0  0
   -5.1760   14.9840   -1.6080 C   0  0  0  0  0  0  0  0  0  0  0  0
   -3.9750   15.0470    0.8400 C   0  0  0  0  0  0  0  0  0  0  0  0
   -5.8650   15.0510   -0.4290 C   0  0  0  0  0  0  0  0  0  0  0  0
   -7.2170   15.0900   -0.4360 O   0  0  0  0  0  0  0  0  0  0  0  0
   -5.3230   15.0770    0.7950 N   0  0  0  0  0  0  0  0  0  0  0  0
  1  2  1  0
  2  3  2  0
  2  4  1  0
  4  5  2  0
  3  6  1  0
  6  7  1  0
  5  8  1  0
  5  9  1  0
  6  9  2  0
  8 10  1  0
  7 11  1  0
 10 12  1  0
 10 13  2  0
 11 14  1  0
 14 15  1  0
 15 16  2  0
 15 17  1  0
 16 18  1  0
 17 19  2  0
 19 20  1  0
 18 21  2  0
 19 21  1  0
M  END
