mac-x0455-diamond-x0900_0_A
     RDKit          3D

 21 22  0  0  0  0  0  0  0  0999 V2000
   -2.3160   14.4540   -2.6970 C   0  0  0  0  0  0  0  0  0  0  0  0
   -0.9400   14.1210   -3.2960 C   0  0  1  0  0  0  0  0  0  0  0  0
   -0.6050   15.3220   -4.0430 O   0  0  0  0  0  0  0  0  0  0  0  0
    0.1770   13.9630   -2.1640 C   0  0  0  0  0  0  0  0  0  0  0  0
   -0.9470   12.9450   -4.2800 C   0  0  0  0  0  0  0  0  0  0  0  0
    0.8270   15.2090   -1.9710 O   0  0  0  0  0  0  0  0  0  0  0  0
    1.1970   13.1130   -2.6690 O   0  0  0  0  0  0  0  0  0  0  0  0
   -0.3080   13.3770   -0.8220 C   0  0  0  0  0  0  0  0  0  0  0  0
   -1.9910   12.0030   -4.3120 C   0  0  0  0  0  0  0  0  0  0  0  0
    0.1120   12.7670   -5.1970 C   0  0  0  0  0  0  0  0  0  0  0  0
   -1.2350   14.1900    0.0860 C   0  0  0  0  0  0  0  0  0  0  0  0
   -1.9800   10.9330   -5.2140 C   0  0  0  0  0  0  0  0  0  0  0  0
    0.1240   11.6980   -6.0990 C   0  0  0  0  0  0  0  0  0  0  0  0
   -2.7270   13.8390    0.0490 C   0  0  0  0  0  0  0  0  0  0  0  0
   -0.9220   10.7830   -6.1050 C   0  0  0  0  0  0  0  0  0  0  0  0
   -3.6510   15.0410   -0.1340 C   0  0  1  0  0  0  0  0  0  0  0  0
   -4.8150   14.7590   -0.9330 N   0  0  0  0  0  0  0  0  0  0  0  0
   -4.2180   15.4370    1.2190 C   0  0  0  0  0  0  0  0  0  0  0  0
   -5.9690   14.8290   -0.1930 C   0  0  0  0  0  0  0  0  0  0  0  0
   -5.5550   14.7060    1.2470 C   0  0  0  0  0  0  0  0  0  0  0  0
   -7.0930   14.9700   -0.6350 O   0  0  0  0  0  0  0  0  0  0  0  0
  2  1  1  1
  2  3  1  0
  2  4  1  0
  2  5  1  0
  4  6  1  0
  4  7  1  0
  4  8  1  0
  5  9  2  0
  5 10  1  0
  8 11  1  0
  9 12  1  0
 10 13  2  0
 11 14  1  0
 12 15  2  0
 13 15  1  0
 16 14  1  1
 16 17  1  0
 16 18  1  0
 17 19  1  0
 18 20  1  0
 19 20  1  0
 19 21  2  0
M  END
