mac-x0555-mac-x0193
     RDKit          3D

 28 30  0  0  0  0  0  0  0  0999 V2000
   -7.5880   14.2920    2.8400 N   0  0  0  0  0  0  0  0  0  0  0  0
   -7.0050   14.5080    1.5890 C   0  0  0  0  0  0  0  0  0  0  0  0
   -7.7220   14.7290    0.4150 C   0  0  0  0  0  0  0  0  0  0  0  0
   -5.6290   14.5090    1.4770 C   0  0  0  0  0  0  0  0  0  0  0  0
   -5.0070   14.7180    0.2540 C   0  0  0  0  0  0  0  0  0  0  0  0
   -7.1570   14.9440   -0.8050 N   0  0  0  0  0  0  0  0  0  0  0  0
   -5.8090   14.9380   -0.8790 C   0  0  0  0  0  0  0  0  0  0  0  0
   -3.6140   14.7020    0.1670 C   0  0  0  0  0  0  0  0  0  0  0  0
   -5.1620   15.1490   -2.0890 C   0  0  0  0  0  0  0  0  0  0  0  0
   -2.9640   14.8960   -1.0400 C   0  0  0  0  0  0  0  0  0  0  0  0
   -1.4410   14.8430   -1.0700 C   0  0  0  0  0  0  0  0  0  0  0  0
   -3.7540   15.1310   -2.1870 C   0  0  0  0  0  0  0  0  0  0  0  0
   -0.7960   13.5090   -0.7840 C   0  0  0  0  0  0  0  0  0  0  0  0
    0.4880   13.3250   -1.5770 C   0  0  0  0  0  0  0  0  0  0  0  0
    0.4030   11.9370   -1.9220 N   0  0  0  0  0  0  0  0  0  0  0  0
    0.4720   11.5430   -3.1480 C   0  0  0  0  0  0  0  0  0  0  0  0
    0.3280   10.2200   -3.2960 O   0  0  0  0  0  0  0  0  0  0  0  0
    0.6730   12.3190   -4.4590 C   0  0  0  0  0  0  0  0  0  0  0  0
    0.1110   11.5550   -5.5770 N   0  0  0  0  0  0  0  0  0  0  0  0
    0.8220   11.3890   -6.7390 C   0  0  0  0  0  0  0  0  0  0  0  0
    1.9430   11.8230   -6.8450 O   0  0  0  0  0  0  0  0  0  0  0  0
    0.1300   10.6830   -7.7200 N   0  0  0  0  0  0  0  0  0  0  0  0
    0.7920   10.1760   -8.9310 C   0  0  0  0  0  0  0  0  0  0  0  0
    1.3390    8.7640   -8.6940 C   0  0  0  0  0  0  0  0  0  0  0  0
   -0.1220   10.1560  -10.1590 C   0  0  0  0  0  0  0  0  0  0  0  0
    2.0680    8.1430   -9.8970 C   0  0  0  0  0  0  0  0  0  0  0  0
    0.6080    9.5880  -11.3840 C   0  0  0  0  0  0  0  0  0  0  0  0
    1.2260    8.2040  -11.1630 C   0  0  0  0  0  0  0  0  0  0  0  0
  1  2  1  0
  2  3  2  0
  2  4  1  0
  4  5  2  0
  3  6  1  0
  5  7  1  0
  6  7  2  0
  5  8  1  0
  7  9  1  0
  8 10  2  0
 10 11  1  0
  9 12  2  0
 10 12  1  0
 11 13  1  0
 13 14  1  0
 14 15  1  0
 15 16  2  3
 16 17  1  0
 16 18  1  0
 18 19  1  0
 19 20  1  0
 20 21  2  0
 20 22  1  0
 22 23  1  0
 23 24  1  0
 23 25  1  0
 24 26  1  0
 25 27  1  0
 26 28  1  0
 27 28  1  0
M  END
