mac-x0451-diamond-x0681_0_A
     RDKit          3D

 16 18  0  0  0  0  0  0  0  0999 V2000
   -3.3410   14.5880    2.2420 N   0  0  0  0  0  0  0  0  0  0  0  0
   -4.3200   14.9850    1.3200 C   0  0  1  0  0  0  0  0  0  0  0  0
   -3.5680   15.7500    0.3750 N   0  0  0  0  0  0  0  0  0  0  0  0
   -4.9800   13.4790    0.6640 S   0  0  0  0  0  0  0  0  0  0  0  0
   -2.5790   14.9960   -0.3460 C   0  0  2  0  0  0  0  0  0  0  0  0
   -5.2740   14.2690   -0.9610 C   0  0  2  0  0  0  0  0  0  0  0  0
   -2.8940   14.9960   -1.7220 N   0  0  0  0  0  0  0  0  0  0  0  0
   -2.7680   13.6450   -0.0160 N   0  0  0  0  0  0  0  0  0  0  0  0
   -6.3250   13.5970   -1.8070 C   0  0  0  0  0  0  0  0  0  0  0  0
   -4.0960   14.2210   -1.9760 C   0  0  2  0  0  0  0  0  0  0  0  0
   -6.1350   14.3480   -3.0810 C   0  0  0  0  0  0  0  0  0  0  0  0
   -4.8380   14.7090   -3.1870 C   0  0  0  0  0  0  0  0  0  0  0  0
   -6.1450   12.1550   -2.0060 N   0  0  0  0  0  0  0  0  0  0  0  0
   -7.6540   13.6190   -1.2000 N   0  0  0  0  0  0  0  0  0  0  0  0
   -7.7460   12.4250   -0.4850 C   0  0  0  0  0  0  0  0  0  0  0  0
   -6.8480   11.5560   -0.9680 C   0  0  0  0  0  0  0  0  0  0  0  0
  2  1  1  1
  2  3  1  0
  2  4  1  0
  3  5  1  0
  6  4  1  1
  5  7  1  0
  5  8  1  1
  6  9  1  0
  6 10  1  0
  7 10  1  0
  9 11  1  0
 10 12  1  6
 11 12  2  0
  9 13  1  0
  9 14  1  0
 14 15  1  0
 13 16  1  0
 15 16  2  0
M  END
