mac-x0379-diamond-x0711_0_A
     RDKit          3D

 13 13  0  0  0  0  0  0  0  0999 V2000
   -5.6890   14.8700   -0.0020 C   0  0  0  0  0  0  0  0  0  0  0  0
   -5.3430   14.8370    1.3220 N   0  0  0  0  0  0  0  0  0  0  0  0
   -6.9050   14.8560   -0.2490 O   0  0  0  0  0  0  0  0  0  0  0  0
   -4.6350   14.9070   -1.0380 C   0  0  0  0  0  0  0  0  0  0  0  0
   -4.9680   15.0310   -2.2990 N   0  0  0  0  0  0  0  0  0  0  0  0
   -2.9270   14.7910   -0.7720 S   0  0  0  0  0  0  0  0  0  0  0  0
   -3.8620   15.0360   -3.1060 C   0  0  0  0  0  0  0  0  0  0  0  0
   -2.6470   14.9160   -2.4810 C   0  0  0  0  0  0  0  0  0  0  0  0
   -1.3340   14.8930   -3.0990 C   0  0  0  0  0  0  0  0  0  0  0  0
   -0.9130   15.7200   -3.8970 O   0  0  0  0  0  0  0  0  0  0  0  0
   -0.3990   13.7450   -2.8310 C   0  0  0  0  0  0  0  0  0  0  0  0
   -0.3830   12.7370   -3.9450 C   0  0  0  0  0  0  0  0  0  0  0  0
    0.2720   13.6400   -1.8160 O   0  0  0  0  0  0  0  0  0  0  0  0
  1  2  1  0
  1  3  2  0
  1  4  1  0
  4  5  2  0
  4  6  1  0
  5  7  1  0
  6  8  1  0
  7  8  2  0
  8  9  1  0
  9 10  2  0
  9 11  1  0
 11 12  1  0
 11 13  2  0
M  END
