mac-x0341-mac-x0282
     RDKit          3D

 16 18  0  0  0  0  0  0  0  0999 V2000
   -6.8080   14.7060    2.4840 N   0  0  0  0  0  0  0  0  0  0  0  0
   -6.0510   14.7380    1.3560 C   0  0  0  0  0  0  0  0  0  0  0  0
   -4.7550   14.8120    1.4190 N   0  0  0  0  0  0  0  0  0  0  0  0
   -6.7300   14.7030    0.1750 N   0  0  0  0  0  0  0  0  0  0  0  0
   -6.1240   14.9820   -1.0140 C   0  0  0  0  0  0  0  0  0  0  0  0
   -3.9930   14.8350    0.2240 C   0  0  0  0  0  0  0  0  0  0  0  0
   -6.7490   15.2470   -2.0290 O   0  0  0  0  0  0  0  0  0  0  0  0
   -4.6630   14.9220   -1.0100 C   0  0  0  0  0  0  0  0  0  0  0  0
   -2.5690   14.7670    0.2330 C   0  0  0  0  0  0  0  0  0  0  0  0
   -1.9390   14.7940   -1.0430 C   0  0  0  0  0  0  0  0  0  0  0  0
   -4.0090   14.9500   -2.2270 C   0  0  0  0  0  0  0  0  0  0  0  0
   -1.7860   14.6780    1.3700 N   0  0  0  0  0  0  0  0  0  0  0  0
   -2.6460   14.8840   -2.2380 C   0  0  0  0  0  0  0  0  0  0  0  0
   -0.5670   14.7320   -1.1430 C   0  0  0  0  0  0  0  0  0  0  0  0
   -0.4380   14.6170    1.2090 C   0  0  0  0  0  0  0  0  0  0  0  0
    0.1950   14.6450   -0.0180 C   0  0  0  0  0  0  0  0  0  0  0  0
  1  2  1  0
  2  3  2  0
  2  4  1  0
  4  5  1  0
  3  6  1  0
  5  7  2  0
  5  8  1  0
  6  8  2  0
  6  9  1  0
  9 10  2  0
  8 11  1  0
  9 12  1  0
 10 13  1  0
 11 13  2  0
 10 14  1  0
 12 15  2  0
 14 16  2  0
 15 16  1  0
M  END
