mac-x0303-mac-x0587
     RDKit          3D

 23 24  0  0  0  0  0  0  0  0999 V2000
   -8.3610   13.0260    2.4700 N   0  0  0  0  0  0  0  0  0  0  0  0
   -8.3700   14.5780    1.7750 S   0  0  0  0  0  0  0  0  0  0  0  0
   -8.2650   15.4810    2.9020 O   0  0  0  0  0  0  0  0  0  0  0  0
   -9.5250   14.5940    0.9050 O   0  0  0  0  0  0  0  0  0  0  0  0
   -6.8700   14.7240    0.7590 C   0  0  0  0  0  0  0  0  0  0  0  0
   -6.8460   14.8090   -0.6590 N   0  0  0  0  0  0  0  0  0  0  0  0
   -5.6970   14.7710    1.3340 N   0  0  0  0  0  0  0  0  0  0  0  0
   -5.5620   14.9020   -0.9370 C   0  0  0  0  0  0  0  0  0  0  0  0
   -4.8110   14.8550    0.3090 C   0  0  0  0  0  0  0  0  0  0  0  0
   -4.8130   15.0200   -2.2190 C   0  0  0  0  0  0  0  0  0  0  0  0
   -3.4820   14.8780    0.3530 C   0  0  0  0  0  0  0  0  0  0  0  0
   -3.4360   15.0290   -2.1940 C   0  0  0  0  0  0  0  0  0  0  0  0
   -2.7060   14.9380   -0.9050 C   0  0  0  0  0  0  0  0  0  0  0  0
   -2.6620   15.1190   -3.5150 C   0  0  0  0  0  0  0  0  0  0  0  0
   -1.4730   14.9040   -0.8570 O   0  0  0  0  0  0  0  0  0  0  0  0
   -1.1210   14.8510   -3.6710 C   0  0  2  0  0  0  0  0  0  0  0  0
   -3.3080   15.4040   -4.5210 O   0  0  0  0  0  0  0  0  0  0  0  0
   -0.3270   16.0940   -4.0840 C   0  0  0  0  0  0  0  0  0  0  0  0
   -0.7180   13.4610   -4.8270 S   0  0  0  0  0  0  0  0  0  0  0  0
   -0.8760   11.9810   -3.7820 C   0  0  0  0  0  0  0  0  0  0  0  0
    0.3720   11.5550   -3.0380 C   0  0  0  0  0  0  0  0  0  0  0  0
    0.6190   10.4110   -2.7140 O   0  0  0  0  0  0  0  0  0  0  0  0
    1.2210   12.5750   -2.7500 O   0  0  0  0  0  0  0  0  0  0  0  0
  2  1  1  0
  2  3  2  0
  2  4  2  0
  2  5  1  0
  5  6  1  0
  5  7  2  0
  6  8  2  0
  7  9  1  0
  8  9  1  0
  8 10  1  0
  9 11  2  0
 10 12  2  0
 11 13  1  0
 12 13  1  0
 12 14  1  0
 13 15  2  0
 14 16  1  0
 14 17  2  0
 16 18  1  6
 16 19  1  0
 19 20  1  0
 20 21  1  0
 21 22  2  0
 21 23  1  0
M  END
