mac-x0301-mac-x0437
     RDKit          3D

 27 30  0  0  0  0  0  0  0  0999 V2000
    0.3140   14.5890   -2.8450 O   0  0  0  0  0  0  0  0  0  0  0  0
   -0.9920   14.7590   -3.1110 C   0  0  0  0  0  0  0  0  0  0  0  0
   -1.4830   14.6480   -4.2810 N   0  0  0  0  0  0  0  0  0  0  0  0
   -1.7760   15.0540   -1.8970 C   0  0  0  0  0  0  0  0  0  0  0  0
   -0.6080   14.2640   -5.3610 C   0  0  0  0  0  0  0  0  0  0  0  0
   -1.2560   14.8530   -0.6250 C   0  0  0  0  0  0  0  0  0  0  0  0
   -3.0880   15.5380   -1.9820 C   0  0  0  0  0  0  0  0  0  0  0  0
   -0.0310   12.9340   -4.9030 C   0  0  2  0  0  0  0  0  0  0  0  0
   -2.0050   15.1210    0.5090 C   0  0  0  0  0  0  0  0  0  0  0  0
   -3.8400   15.8040   -0.8280 C   0  0  0  0  0  0  0  0  0  0  0  0
   -0.0220   14.3880   -0.3000 O   0  0  0  0  0  0  0  0  0  0  0  0
    1.4530   12.8230   -4.6240 C   0  0  0  0  0  0  0  0  0  0  0  0
   -3.2950   15.5950    0.4400 C   0  0  0  0  0  0  0  0  0  0  0  0
   -1.3250   14.8620    1.6660 O   0  0  0  0  0  0  0  0  0  0  0  0
   -0.0350   14.5320    1.1300 C   0  0  0  0  0  0  0  0  0  0  0  0
   -0.6790   11.7630   -5.4610 N   0  0  0  0  0  0  0  0  0  0  0  0
    1.4860   12.2100   -3.2500 C   0  0  0  0  0  0  0  0  0  0  0  0
   -1.8650   11.3260   -4.9390 C   0  0  0  0  0  0  0  0  0  0  0  0
   -0.3350   10.9130   -6.4900 C   0  0  0  0  0  0  0  0  0  0  0  0
    2.1650   12.9020   -2.3250 O   0  0  0  0  0  0  0  0  0  0  0  0
    0.9130   11.1600   -2.9790 O   0  0  0  0  0  0  0  0  0  0  0  0
   -2.3090   10.2620   -5.5430 N   0  0  0  0  0  0  0  0  0  0  0  0
   -1.3770    9.9870   -6.5030 C   0  0  0  0  0  0  0  0  0  0  0  0
    0.7330   10.8350   -7.3900 C   0  0  0  0  0  0  0  0  0  0  0  0
   -1.3720    8.9380   -7.4310 C   0  0  0  0  0  0  0  0  0  0  0  0
    0.7210    9.7780   -8.3120 C   0  0  0  0  0  0  0  0  0  0  0  0
   -0.3100    8.8460   -8.3320 C   0  0  0  0  0  0  0  0  0  0  0  0
  1  2  1  0
  2  3  2  3
  2  4  1  0
  3  5  1  0
  4  6  1  0
  4  7  2  0
  8  5  1  6
  6  9  2  0
  7 10  1  0
  6 11  1  0
  8 12  1  0
  9 13  1  0
 10 13  2  0
  9 14  1  0
 11 15  1  0
 14 15  1  0
  8 16  1  0
 12 17  1  0
 16 18  1  0
 16 19  1  0
 17 20  1  0
 17 21  2  0
 18 22  2  0
 19 23  2  0
 22 23  1  0
 19 24  1  0
 23 25  1  0
 24 26  2  0
 25 27  2  0
 26 27  1  0
M  END
