mac-x0124-diamond-x1015_0_A
     RDKit          3D

 25 28  0  0  0  0  0  0  0  0999 V2000
   -0.9770   14.6010   -3.1050 C   0  0  0  0  0  0  0  0  0  0  0  0
   -1.8370   14.8510   -2.1040 N   0  0  0  0  0  0  0  0  0  0  0  0
   -3.1530   15.2010   -2.3420 C   0  0  0  0  0  0  0  0  0  0  0  0
   -0.0810   13.6650   -3.1250 C   0  0  0  0  0  0  0  0  0  0  0  0
   -1.6250   14.7990   -0.7520 C   0  0  0  0  0  0  0  0  0  0  0  0
    0.7650   13.3640   -4.2750 C   0  0  2  0  0  0  0  0  0  0  0  0
    0.2350   12.7530   -2.1790 N   0  0  0  0  0  0  0  0  0  0  0  0
    0.0910   14.0490   -5.4590 C   0  0  0  0  0  0  0  0  0  0  0  0
   -3.7830   15.3730   -1.1460 C   0  0  0  0  0  0  0  0  0  0  0  0
   -2.8210   15.1170   -0.1410 C   0  0  0  0  0  0  0  0  0  0  0  0
   -0.4630   14.4960   -0.1380 N   0  0  0  0  0  0  0  0  0  0  0  0
    0.5320   11.9180   -4.2020 N   0  0  0  0  0  0  0  0  0  0  0  0
    0.4080   11.5520   -2.8300 C   0  0  0  0  0  0  0  0  0  0  0  0
    0.4350   10.4490   -2.2870 O   0  0  0  0  0  0  0  0  0  0  0  0
   -2.8240   15.1210    1.2360 C   0  0  0  0  0  0  0  0  0  0  0  0
   -0.5880   14.5240    1.1890 C   0  0  0  0  0  0  0  0  0  0  0  0
   -0.1230   11.2210   -5.2370 C   0  0  0  0  0  0  0  0  0  0  0  0
   -3.9590   15.4410    1.9480 N   0  0  0  0  0  0  0  0  0  0  0  0
   -1.6910   14.8100    1.8920 N   0  0  0  0  0  0  0  0  0  0  0  0
    0.2770   11.3960   -6.5640 C   0  0  0  0  0  0  0  0  0  0  0  0
   -1.1800   10.3340   -4.9770 C   0  0  0  0  0  0  0  0  0  0  0  0
   -0.3460   10.7070   -7.6010 C   0  0  0  0  0  0  0  0  0  0  0  0
   -1.8090    9.6410   -6.0130 C   0  0  0  0  0  0  0  0  0  0  0  0
   -1.3870    9.8300   -7.3220 C   0  0  0  0  0  0  0  0  0  0  0  0
   -2.1450    8.9760   -8.6030 Cl  0  0  0  0  0  0  0  0  0  0  0  0
  1  2  1  0
  2  3  1  0
  1  4  2  3
  2  5  1  0
  4  6  1  0
  4  7  1  0
  6  8  1  6
  3  9  2  0
  5 10  2  0
  9 10  1  0
  5 11  1  0
  6 12  1  0
  7 13  1  0
 12 13  1  0
 13 14  2  0
 10 15  1  0
 11 16  2  0
 12 17  1  0
 15 18  1  0
 15 19  2  0
 16 19  1  0
 17 20  2  0
 17 21  1  0
 20 22  1  0
 21 23  2  0
 22 24  2  0
 23 24  1  0
 24 25  1  0
M  END
