mac-x0282-mac-x0587
     RDKit          3D

 19 20  0  0  0  0  0  0  0  0999 V2000
   -0.5410   16.3850   -4.0070 C   0  0  0  0  0  0  0  0  0  0  0  0
   -1.0430   15.0070   -3.6000 C   0  0  2  0  0  0  0  0  0  0  0  0
   -0.6140   13.6920   -4.8350 S   0  0  0  0  0  0  0  0  0  0  0  0
   -2.5620   14.9990   -3.2230 C   0  0  0  0  0  0  0  0  0  0  0  0
   -0.8400   12.1170   -3.9270 C   0  0  0  0  0  0  0  0  0  0  0  0
   -3.4220   15.2330   -4.0720 O   0  0  0  0  0  0  0  0  0  0  0  0
   -2.9020   14.6770   -1.7490 C   0  0  2  0  0  0  0  0  0  0  0  0
    0.3670   11.6330   -3.1550 C   0  0  0  0  0  0  0  0  0  0  0  0
   -4.0970   15.2890   -0.9950 C   0  0  0  0  0  0  0  0  0  0  0  0
   -1.7290   15.0620   -0.9000 C   0  0  1  0  0  0  0  0  0  0  0  0
    0.5940   10.4990   -2.7820 O   0  0  0  0  0  0  0  0  0  0  0  0
    1.2500   12.6200   -2.8760 O   0  0  0  0  0  0  0  0  0  0  0  0
   -1.0970   16.2200   -1.3920 O   0  0  0  0  0  0  0  0  0  0  0  0
   -2.3350   15.3180    0.5200 C   0  0  1  0  0  0  0  0  0  0  0  0
   -3.7780   15.1240    0.4410 N   0  0  0  0  0  0  0  0  0  0  0  0
   -0.6410   14.0740   -0.9660 C   0  0  0  0  0  0  0  0  0  0  0  0
    0.0190   13.7900    0.1080 C   0  0  0  0  0  0  0  0  0  0  0  0
   -1.7330   14.5740    1.6010 N   0  0  0  0  0  0  0  0  0  0  0  0
   -0.2920   14.4120    1.4010 C   0  0  0  0  0  0  0  0  0  0  0  0
  2  1  1  6
  2  3  1  0
  2  4  1  0
  3  5  1  0
  4  6  2  0
  7  4  1  6
  5  8  1  0
  7  9  1  0
  7 10  1  0
  8 11  2  0
  8 12  1  0
 10 13  1  6
 10 14  1  0
  9 15  1  0
 14 15  1  6
 10 16  1  0
 16 17  2  0
 14 18  1  0
 17 19  1  0
 18 19  1  0
M  END
