mac-x0345-diamond-x0969_0_A
     RDKit          3D

 13 14  0  0  0  0  0  0  0  0999 V2000
   -6.7160   12.6610    0.2200 C   0  0  0  0  0  0  0  0  0  0  0  0
   -5.5790   12.6630   -0.8220 C   0  0  0  0  0  0  0  0  0  0  0  0
   -5.8520   13.3780   -2.0540 N   0  0  0  0  0  0  0  0  0  0  0  0
   -4.8000   14.0520   -2.8150 C   0  0  2  0  0  0  0  0  0  0  0  0
   -6.4300   14.5280   -1.6190 C   0  0  2  0  0  0  0  0  0  0  0  0
   -4.3150   13.2990   -3.9160 N   0  0  0  0  0  0  0  0  0  0  0  0
   -5.4980   15.1430   -0.4920 C   0  0  1  0  0  0  0  0  0  0  0  0
   -3.7150   14.6440   -1.9610 C   0  0  0  0  0  0  0  0  0  0  0  0
   -7.7530   14.8790   -1.1680 N   0  0  0  0  0  0  0  0  0  0  0  0
   -5.6810   14.6560    1.4000 Br  0  0  0  0  0  0  0  0  0  0  0  0
   -4.0490   15.1910   -0.8090 C   0  0  0  0  0  0  0  0  0  0  0  0
   -6.1420   16.3850   -0.8030 C   0  0  0  0  0  0  0  0  0  0  0  0
   -7.4500   16.2070   -1.1750 C   0  0  0  0  0  0  0  0  0  0  0  0
  1  2  1  0
  2  3  1  0
  3  4  1  0
  3  5  1  0
  4  6  1  6
  5  7  1  0
  4  8  1  0
  5  9  1  1
  7 10  1  1
  7 11  1  0
  8 11  2  0
  7 12  1  0
  9 13  1  0
 12 13  2  0
M  END
