mac-x0277-diamond-x0962_1_A
     RDKit          3D

 21 22  0  0  0  0  0  0  0  0999 V2000
   -1.2350   18.3750   -5.3370 Cl  0  0  0  0  0  0  0  0  0  0  0  0
   -0.5480   16.8370   -4.9580 C   0  0  0  0  0  0  0  0  0  0  0  0
   -1.2980   15.6590   -4.9980 C   0  0  0  0  0  0  0  0  0  0  0  0
    0.8010   16.7960   -4.6040 C   0  0  0  0  0  0  0  0  0  0  0  0
   -2.7600   15.6110   -5.3600 C   0  0  0  0  0  0  0  0  0  0  0  0
   -0.6630   14.4430   -4.6760 C   0  0  0  0  0  0  0  0  0  0  0  0
    1.4160   15.5800   -4.2830 C   0  0  0  0  0  0  0  0  0  0  0  0
   -3.5460   14.8460   -4.2970 C   0  0  0  0  0  0  0  0  0  0  0  0
    0.6890   14.3890   -4.3160 C   0  0  0  0  0  0  0  0  0  0  0  0
    1.3450   13.0650   -3.9650 C   0  0  0  0  0  0  0  0  0  0  0  0
   -2.8130   14.7480   -2.9580 C   0  0  0  0  0  0  0  0  0  0  0  0
    0.7480   12.3620   -2.7520 C   0  0  0  0  0  0  0  0  0  0  0  0
   -3.7220   14.9480   -1.8380 C   0  0  0  0  0  0  0  0  0  0  0  0
    0.1530   11.2040   -3.1000 O   0  0  0  0  0  0  0  0  0  0  0  0
    0.7440   12.7090   -1.5710 O   0  0  0  0  0  0  0  0  0  0  0  0
   -4.5380   14.9800   -0.9790 C   0  0  0  0  0  0  0  0  0  0  0  0
   -5.5730   14.8350   -0.0470 C   0  0  0  0  0  0  0  0  0  0  0  0
   -5.4210   14.7920    1.3060 N   0  0  0  0  0  0  0  0  0  0  0  0
   -6.9190   14.6950   -0.2660 C   0  0  0  0  0  0  0  0  0  0  0  0
   -6.6610   14.6240    1.8520 C   0  0  0  0  0  0  0  0  0  0  0  0
   -7.5920   14.5620    0.9220 N   0  0  0  0  0  0  0  0  0  0  0  0
  1  2  1  0
  2  3  2  0
  2  4  1  0
  3  5  1  0
  3  6  1  0
  4  7  2  0
  5  8  1  0
  6  9  2  0
  7  9  1  0
  9 10  1  0
  8 11  1  0
 10 12  1  0
 11 13  1  0
 12 14  1  0
 12 15  2  0
 13 16  3  0
 16 17  1  0
 17 18  1  0
 17 19  2  0
 18 20  1  0
 19 21  1  0
 20 21  2  0
M  END
