mac-x0204-diamond-x0969_0_A
     RDKit          3D

 22 24  0  0  0  0  0  0  0  0999 V2000
    0.8610   12.6210   -2.8710 O   0  0  0  0  0  0  0  0  0  0  0  0
    0.0090   13.7380   -2.7100 C   0  0  0  0  0  0  0  0  0  0  0  0
    0.8560   14.8720   -2.6460 O   0  0  0  0  0  0  0  0  0  0  0  0
   -0.7760   13.5560   -1.4220 C   0  0  0  0  0  0  0  0  0  0  0  0
   -1.0070   13.8630   -3.8170 C   0  0  0  0  0  0  0  0  0  0  0  0
   -1.5540   14.8300   -1.1880 C   0  0  0  0  0  0  0  0  0  0  0  0
   -1.3970   15.1090   -4.3490 C   0  0  0  0  0  0  0  0  0  0  0  0
   -1.6160   12.7360   -4.3500 C   0  0  0  0  0  0  0  0  0  0  0  0
   -2.3550   15.1590   -5.3530 C   0  0  0  0  0  0  0  0  0  0  0  0
   -2.5500   12.7580   -5.3280 N   0  0  0  0  0  0  0  0  0  0  0  0
   -2.9450   14.8160   -0.6320 C   0  0  0  0  0  0  0  0  0  0  0  0
   -2.7260   16.3750   -5.8530 O   0  0  0  0  0  0  0  0  0  0  0  0
   -2.9000   13.9690   -5.8080 C   0  0  0  0  0  0  0  0  0  0  0  0
   -4.1140   14.7420   -1.3440 C   0  0  0  0  0  0  0  0  0  0  0  0
   -2.9620   14.9130    0.8080 C   0  0  0  0  0  0  0  0  0  0  0  0
   -5.3590   14.7200   -0.6380 C   0  0  0  0  0  0  0  0  0  0  0  0
   -4.1170   14.9070    1.4450 C   0  0  0  0  0  0  0  0  0  0  0  0
   -6.6250   14.6280   -1.0010 N   0  0  0  0  0  0  0  0  0  0  0  0
   -5.2920   14.7970    0.7380 N   0  0  0  0  0  0  0  0  0  0  0  0
   -6.5910   14.7300    1.1870 C   0  0  0  0  0  0  0  0  0  0  0  0
   -7.3950   14.6330    0.1530 N   0  0  0  0  0  0  0  0  0  0  0  0
   -6.9170   14.7670    2.5030 N   0  0  0  0  0  0  0  0  0  0  0  0
  2  1  1  0
  2  3  1  0
  2  4  1  0
  2  5  1  0
  4  6  1  0
  5  7  2  0
  5  8  1  0
  7  9  1  0
  8 10  2  0
  6 11  1  0
  9 12  1  0
  9 13  2  0
 10 13  1  0
 11 14  2  0
 11 15  1  0
 14 16  1  0
 15 17  2  0
 16 18  2  0
 16 19  1  0
 17 19  1  0
 19 20  1  0
 18 21  1  0
 20 21  2  0
 20 22  1  0
M  END
