mac-x1493-diamond-x0685_1_A
     RDKit          3D

 28 30  0  0  0  0  0  0  0  0999 V2000
   -1.3620   14.9250   -1.3600 O   0  0  0  0  0  0  0  0  0  0  0  0
   -2.2950   14.9480   -2.3240 C   0  0  0  0  0  0  0  0  0  0  0  0
   -1.8660   15.0240   -3.5230 N   0  0  0  0  0  0  0  0  0  0  0  0
   -3.6050   14.8730   -1.6980 C   0  0  0  0  0  0  0  0  0  0  0  0
   -0.4040   15.0950   -3.6950 C   0  0  0  0  0  0  0  0  0  0  0  0
   -3.7320   15.0210   -0.3290 C   0  0  0  0  0  0  0  0  0  0  0  0
   -4.7450   14.6460   -2.4470 C   0  0  0  0  0  0  0  0  0  0  0  0
    0.1170   14.0460   -4.6840 C   0  0  0  0  0  0  0  0  0  0  0  0
   -4.9940   14.9210    0.2440 C   0  0  0  0  0  0  0  0  0  0  0  0
   -5.9890   14.5490   -1.9130 N   0  0  0  0  0  0  0  0  0  0  0  0
   -0.0670   12.5510   -4.3340 C   0  0  2  0  0  0  0  0  0  0  0  0
   -6.1090   14.6770   -0.5840 C   0  0  0  0  0  0  0  0  0  0  0  0
   -5.1670   15.0520    1.6160 C   0  0  0  0  0  0  0  0  0  0  0  0
   -1.4720   11.9680   -4.5520 C   0  0  0  0  0  0  0  0  0  0  0  0
    0.6330   12.0240   -2.7310 S   0  0  0  0  0  0  0  0  0  0  0  0
   -7.3620   14.5640    0.0080 C   0  0  0  0  0  0  0  0  0  0  0  0
   -6.4360   14.9270    2.1890 C   0  0  0  0  0  0  0  0  0  0  0  0
   -1.4220   10.5280   -4.8480 N   0  0  0  0  0  0  0  0  0  0  0  0
    2.1980   12.3210   -2.8490 O   0  0  0  0  0  0  0  0  0  0  0  0
    0.3400   10.4580   -2.5230 O   0  0  0  0  0  0  0  0  0  0  0  0
    0.0440   12.8120   -1.4720 O   0  0  0  0  0  0  0  0  0  0  0  0
   -7.5360   14.6820    1.3890 C   0  0  0  0  0  0  0  0  0  0  0  0
   -1.3210   10.0990   -6.2590 C   0  0  0  0  0  0  0  0  0  0  0  0
   -0.0690    9.2720   -6.5740 C   0  0  0  0  0  0  0  0  0  0  0  0
   -1.5610   11.2060   -7.3070 C   0  0  0  0  0  0  0  0  0  0  0  0
   -0.2250    8.5060   -7.8770 C   0  0  0  0  0  0  0  0  0  0  0  0
   -1.0820   10.7970   -8.7000 C   0  0  0  0  0  0  0  0  0  0  0  0
   -1.0710    9.2760   -8.8970 C   0  0  0  0  0  0  0  0  0  0  0  0
  1  2  1  0
  2  3  2  3
  2  4  1  0
  3  5  1  0
  4  6  2  0
  4  7  1  0
  5  8  1  0
  6  9  1  0
  7 10  2  0
 11  8  1  1
  9 12  2  0
 10 12  1  0
  9 13  1  0
 11 14  1  0
 11 15  1  0
 12 16  1  0
 13 17  2  0
 14 18  1  0
 15 19  1  0
 15 20  1  0
 15 21  1  0
 16 22  2  0
 17 22  1  0
 18 23  1  0
 23 24  1  0
 23 25  1  0
 24 26  1  0
 25 27  1  0
 26 28  1  0
 27 28  1  0
M  END
