mac-x0453-mac-x0326
     RDKit          3D

 18 19  0  0  0  0  0  0  0  0999 V2000
   -6.9690   14.2350    2.4780 N   0  0  0  0  0  0  0  0  0  0  0  0
   -6.1510   13.6800    1.4080 C   0  0  0  0  0  0  0  0  0  0  0  0
   -4.8990   14.5210    1.1460 C   0  0  0  0  0  0  0  0  0  0  0  0
   -4.2000   14.0690   -0.1530 C   0  0  2  0  0  0  0  0  0  0  0  0
   -2.6630   14.2040   -0.0890 C   0  0  0  0  0  0  0  0  0  0  0  0
   -4.5440   14.7930   -1.3850 N   0  0  0  0  0  0  0  0  0  0  0  0
   -6.1370   15.4840   -1.5190 Cl  0  0  0  0  0  0  0  0  0  0  0  0
   -2.2520   14.7330   -1.4630 C   0  0  2  0  0  0  0  0  0  0  0  0
   -3.4190   15.6430   -1.7630 C   0  0  0  0  0  0  0  0  0  0  0  0
   -2.0940   13.7070   -2.5650 C   0  0  0  0  0  0  0  0  0  0  0  0
   -0.5870   15.4970   -1.5180 S   0  0  0  0  0  0  0  0  0  0  0  0
   -0.4280   15.2460   -3.3270 C   0  0  2  0  0  0  0  0  0  0  0  0
   -1.5440   14.3940   -3.7540 N   0  0  0  0  0  0  0  0  0  0  0  0
    0.9280   14.6730   -3.7980 C   0  0  0  0  0  0  0  0  0  0  0  0
    0.8690   13.2330   -4.3270 C   0  0  0  0  0  0  0  0  0  0  0  0
    0.9810   12.2390   -3.2000 C   0  0  0  0  0  0  0  0  0  0  0  0
    0.1710   11.1660   -3.3050 O   0  0  0  0  0  0  0  0  0  0  0  0
    1.7390   12.3850   -2.2610 O   0  0  0  0  0  0  0  0  0  0  0  0
  1  2  1  0
  2  3  1  0
  4  3  1  1
  4  5  1  0
  4  6  1  0
  6  7  1  0
  8  5  1  1
  6  9  1  0
  8  9  1  0
  8 10  1  0
  8 11  1  0
 11 12  1  0
 10 13  1  0
 12 13  1  0
 12 14  1  1
 14 15  1  0
 15 16  1  0
 16 17  1  0
 16 18  2  0
M  END
