mac-x0132-mac-x0346
     RDKit          3D

 15 16  0  0  0  0  0  0  0  0999 V2000
   -3.7470   15.0970    2.3410 N   0  0  0  0  0  0  0  0  0  0  0  0
   -4.8440   14.9790    1.5110 C   0  0  0  0  0  0  0  0  0  0  0  0
   -6.0320   14.8140    2.1230 N   0  0  0  0  0  0  0  0  0  0  0  0
   -4.7020   15.0290    0.1370 C   0  0  0  0  0  0  0  0  0  0  0  0
   -5.8840   14.8920   -0.5330 C   0  0  0  0  0  0  0  0  0  0  0  0
   -7.0950   14.6880    1.3740 C   0  0  0  0  0  0  0  0  0  0  0  0
   -3.4910   15.1970   -0.5740 C   0  0  0  0  0  0  0  0  0  0  0  0
   -7.0680   14.7240    0.0620 N   0  0  0  0  0  0  0  0  0  0  0  0
   -5.8750   14.9240   -1.8660 C   0  0  0  0  0  0  0  0  0  0  0  0
   -3.4920   15.2270   -1.9720 C   0  0  0  0  0  0  0  0  0  0  0  0
   -7.2240   14.7610   -2.4010 C   0  0  0  0  0  0  0  0  0  0  0  0
   -4.7070   15.0890   -2.6350 C   0  0  0  0  0  0  0  0  0  0  0  0
   -8.2690   14.9340   -1.4940 N   0  0  0  0  0  0  0  0  0  0  0  0
   -7.4080   14.4740   -3.5600 O   0  0  0  0  0  0  0  0  0  0  0  0
   -8.4070   14.0340   -0.3920 O   0  0  0  0  0  0  0  0  0  0  0  0
  1  2  1  0
  2  3  2  0
  2  4  1  0
  4  5  2  0
  3  6  1  0
  4  7  1  0
  5  8  1  0
  6  8  2  0
  5  9  1  0
  7 10  2  0
  9 11  1  0
  9 12  2  0
 10 12  1  0
 11 13  1  0
 11 14  2  0
 13 15  1  0
M  END
