mac-x0131-mac-x0213
     RDKit          3D

 30 34  0  0  0  0  0  0  0  0999 V2000
   -4.4060   14.7600   -3.9000 C   0  0  0  0  0  0  0  0  0  0  0  0
   -3.6480   14.7620   -2.6200 C   0  0  0  0  0  0  0  0  0  0  0  0
   -4.0740   15.1480   -1.3730 C   0  0  0  0  0  0  0  0  0  0  0  0
   -2.3520   14.3400   -2.5330 N   0  0  0  0  0  0  0  0  0  0  0  0
   -5.4280   15.6600   -1.0360 C   0  0  0  0  0  0  0  0  0  0  0  0
   -1.6640   13.8390   -3.7300 C   0  0  2  0  0  0  0  0  0  0  0  0
   -2.9960   14.9640   -0.4640 C   0  0  0  0  0  0  0  0  0  0  0  0
   -1.9130   14.4740   -1.1980 C   0  0  0  0  0  0  0  0  0  0  0  0
   -2.8170   15.1580    0.9170 C   0  0  0  0  0  0  0  0  0  0  0  0
   -0.7020   14.1950   -0.6650 N   0  0  0  0  0  0  0  0  0  0  0  0
   -1.2650   12.4280   -3.8160 C   0  0  0  0  0  0  0  0  0  0  0  0
   -0.6330   14.5130   -4.5130 C   0  0  2  0  0  0  0  0  0  0  0  0
   -3.8340   15.6240    1.7460 N   0  0  0  0  0  0  0  0  0  0  0  0
   -1.6230   14.8870    1.4820 N   0  0  0  0  0  0  0  0  0  0  0  0
   -0.6470   14.4330    0.6680 C   0  0  0  0  0  0  0  0  0  0  0  0
   -0.1040   11.7580   -4.1700 C   0  0  0  0  0  0  0  0  0  0  0  0
   -2.2380   11.5650   -3.5020 O   0  0  0  0  0  0  0  0  0  0  0  0
    0.8230   14.2120   -4.1860 C   0  0  2  0  0  0  0  0  0  0  0  0
   -0.7640   15.9190   -4.8890 C   0  0  0  0  0  0  0  0  0  0  0  0
    1.0870   13.4120   -2.9080 C   0  0  0  0  0  0  0  0  0  0  0  0
   -1.7180   10.3410   -3.6490 C   0  0  0  0  0  0  0  0  0  0  0  0
   -0.4110   10.3960   -4.0520 C   0  0  0  0  0  0  0  0  0  0  0  0
    0.4520   16.5400   -4.6580 C   0  0  0  0  0  0  0  0  0  0  0  0
    1.4740   15.5800   -4.0770 C   0  0  0  0  0  0  0  0  0  0  0  0
   -1.8640   16.5780   -5.3990 C   0  0  0  0  0  0  0  0  0  0  0  0
    0.8780   12.0890   -2.9920 O   0  0  0  0  0  0  0  0  0  0  0  0
    1.4470   13.8900   -1.8500 O   0  0  0  0  0  0  0  0  0  0  0  0
   -1.7340   17.9160   -5.7040 C   0  0  0  0  0  0  0  0  0  0  0  0
    0.5930   17.8760   -4.9610 C   0  0  0  0  0  0  0  0  0  0  0  0
   -0.5130   18.5540   -5.4910 C   0  0  0  0  0  0  0  0  0  0  0  0
  1  2  1  0
  2  3  2  0
  2  4  1  0
  3  5  1  0
  4  6  1  0
  3  7  1  0
  4  8  1  0
  7  8  2  0
  7  9  1  0
  8 10  1  0
  6 11  1  1
  6 12  1  0
  9 13  1  0
  9 14  2  0
 10 15  2  0
 14 15  1  0
 11 16  2  0
 11 17  1  0
 12 18  1  0
 12 19  1  1
 18 20  1  1
 17 21  1  0
 16 22  1  0
 21 22  2  0
 19 23  2  0
 18 24  1  0
 23 24  1  0
 19 25  1  0
 20 26  1  0
 20 27  2  0
 25 28  2  0
 23 29  1  0
 28 30  1  0
 29 30  2  0
M  END
