mac-x0271-mac-x0301
     RDKit          3D

 22 25  0  0  0  0  0  0  0  0999 V2000
   -3.9820   13.2800   -2.2840 O   0  0  0  0  0  0  0  0  0  0  0  0
   -4.1740   14.6120   -1.8700 C   0  0  2  0  0  0  0  0  0  0  0  0
   -3.3410   15.0150   -0.5940 C   0  0  1  0  0  0  0  0  0  0  0  0
   -5.6930   14.9250   -1.8600 C   0  0  0  0  0  0  0  0  0  0  0  0
   -6.3410   14.8130   -0.5370 C   0  0  0  0  0  0  0  0  0  0  0  0
   -4.2450   15.5500    0.5630 C   0  0  0  0  0  0  0  0  0  0  0  0
   -2.2790   14.1740    0.1460 C   0  0  1  0  0  0  0  0  0  0  0  0
   -2.2780   15.9650   -1.2010 C   0  0  0  0  0  0  0  0  0  0  0  0
   -5.6840   15.0830    0.5780 C   0  0  0  0  0  0  0  0  0  0  0  0
   -7.7020   14.4100   -0.5300 O   0  0  0  0  0  0  0  0  0  0  0  0
   -1.0160   15.1270   -1.6170 C   0  0  1  0  0  0  0  0  0  0  0  0
   -1.1970   13.8410   -0.8640 C   0  0  1  0  0  0  0  0  0  0  0  0
   -1.5590   14.7080    1.2890 O   0  0  0  0  0  0  0  0  0  0  0  0
   -0.8210   14.8620   -3.0970 C   0  0  0  0  0  0  0  0  0  0  0  0
   -6.3990   14.9390    1.8260 C   0  0  0  0  0  0  0  0  0  0  0  0
   -8.4630   14.6500    0.5810 C   0  0  0  0  0  0  0  0  0  0  0  0
   -0.1520   13.3390   -0.0400 O   0  0  0  0  0  0  0  0  0  0  0  0
   -0.1910   14.2660    1.0760 C   0  0  0  0  0  0  0  0  0  0  0  0
   -9.6810   14.8070    0.5580 O   0  0  0  0  0  0  0  0  0  0  0  0
    0.4530   14.5620   -3.3980 O   0  0  0  0  0  0  0  0  0  0  0  0
   -1.6540   14.8840   -3.9890 O   0  0  0  0  0  0  0  0  0  0  0  0
   -7.7210   14.7290    1.8450 C   0  0  0  0  0  0  0  0  0  0  0  0
  2  1  1  1
  2  3  1  0
  2  4  1  0
  4  5  1  0
  3  6  1  1
  3  7  1  0
  3  8  1  0
  5  9  2  0
  6  9  1  0
  5 10  1  0
  8 11  1  0
  7 12  1  0
 11 12  1  0
  7 13  1  1
 11 14  1  6
  9 15  1  0
 10 16  1  0
 12 17  1  1
 13 18  1  0
 17 18  1  0
 16 19  2  0
 14 20  1  0
 14 21  2  0
 15 22  2  0
 16 22  1  0
M  END
