mac-x0302-mac-x0333
     RDKit          3D

 18 19  0  0  0  0  0  0  0  0999 V2000
    1.3900   14.3120   -3.7040 O   0  0  0  0  0  0  0  0  0  0  0  0
    0.3740   14.1190   -2.8400 C   0  0  0  0  0  0  0  0  0  0  0  0
    0.5830   13.5660   -1.7710 O   0  0  0  0  0  0  0  0  0  0  0  0
   -0.9670   14.6450   -3.3240 C   0  0  0  0  0  0  0  0  0  0  0  0
   -1.8960   14.6770   -2.2020 N   0  0  0  0  0  0  0  0  0  0  0  0
   -3.1920   15.1500   -2.3110 C   0  0  0  0  0  0  0  0  0  0  0  0
   -3.6440   15.6360   -3.3410 O   0  0  0  0  0  0  0  0  0  0  0  0
   -4.0150   15.0160   -1.0650 C   0  0  0  0  0  0  0  0  0  0  0  0
   -5.4330   14.9650   -0.9790 C   0  0  0  0  0  0  0  0  0  0  0  0
   -3.2620   14.9260    0.1300 C   0  0  0  0  0  0  0  0  0  0  0  0
   -6.4250   15.0490   -2.0570 C   0  0  0  0  0  0  0  0  0  0  0  0
   -3.8820   14.7770    1.3660 C   0  0  0  0  0  0  0  0  0  0  0  0
   -5.9960   14.8120    0.2570 C   0  0  0  0  0  0  0  0  0  0  0  0
   -7.7090   14.9080   -1.4630 O   0  0  0  0  0  0  0  0  0  0  0  0
   -5.2610   14.7160    1.4050 C   0  0  0  0  0  0  0  0  0  0  0  0
   -7.3620   14.7390    0.4590 O   0  0  0  0  0  0  0  0  0  0  0  0
   -6.1710   14.5420    2.5520 C   0  0  0  0  0  0  0  0  0  0  0  0
   -7.5320   14.5950    1.8830 C   0  0  0  0  0  0  0  0  0  0  0  0
  1  2  1  0
  2  3  2  0
  2  4  1  0
  4  5  1  0
  5  6  1  0
  6  7  2  0
  6  8  1  0
  8  9  2  0
  8 10  1  0
  9 11  1  0
 10 12  2  0
  9 13  1  0
 11 14  1  0
 12 15  1  0
 13 15  2  0
 13 16  1  0
 15 17  1  0
 16 18  1  0
 17 18  1  0
M  END
