mac-x0131-mac-x0373
     RDKit          3D

 21 23  0  0  0  0  0  0  0  0999 V2000
   -3.4220   14.6960   -4.0570 C   0  0  0  0  0  0  0  0  0  0  0  0
   -3.0190   14.7390   -2.6160 C   0  0  0  0  0  0  0  0  0  0  0  0
   -3.7690   15.1300   -1.4880 C   0  0  0  0  0  0  0  0  0  0  0  0
   -1.7650   14.3660   -2.1260 N   0  0  0  0  0  0  0  0  0  0  0  0
   -5.1830   15.5960   -1.4470 C   0  0  0  0  0  0  0  0  0  0  0  0
   -0.5210   13.8340   -2.6650 C   0  0  2  0  0  0  0  0  0  0  0  0
   -2.9150   14.9940   -0.3340 C   0  0  0  0  0  0  0  0  0  0  0  0
   -1.7140   14.5360   -0.8010 C   0  0  0  0  0  0  0  0  0  0  0  0
    0.7740   14.4300   -2.2350 C   0  0  0  0  0  0  0  0  0  0  0  0
   -2.9610   15.1870    1.0580 C   0  0  0  0  0  0  0  0  0  0  0  0
   -0.5960   14.2620   -0.1150 N   0  0  0  0  0  0  0  0  0  0  0  0
   -0.4490   12.8830   -3.7780 C   0  0  0  0  0  0  0  0  0  0  0  0
   -4.0650   15.6340    1.7650 N   0  0  0  0  0  0  0  0  0  0  0  0
    1.4990   13.6170   -1.4150 O   0  0  0  0  0  0  0  0  0  0  0  0
    1.1690   15.5150   -2.6010 O   0  0  0  0  0  0  0  0  0  0  0  0
   -1.8520   14.9250    1.7920 N   0  0  0  0  0  0  0  0  0  0  0  0
   -0.7490   14.4880    1.1810 C   0  0  0  0  0  0  0  0  0  0  0  0
    0.5780   12.5930   -4.6450 C   0  0  0  0  0  0  0  0  0  0  0  0
   -1.5310   12.1050   -4.0300 O   0  0  0  0  0  0  0  0  0  0  0  0
   -1.1930   11.3070   -5.0620 C   0  0  0  0  0  0  0  0  0  0  0  0
    0.0920   11.5670   -5.4770 C   0  0  0  0  0  0  0  0  0  0  0  0
  1  2  1  0
  2  3  2  0
  2  4  1  0
  3  5  1  0
  4  6  1  0
  3  7  1  0
  4  8  1  0
  7  8  2  0
  6  9  1  6
  7 10  1  0
  8 11  1  0
  6 12  1  0
 10 13  1  0
  9 14  1  0
  9 15  2  0
 10 16  2  0
 11 17  2  0
 16 17  1  0
 12 18  2  0
 12 19  1  0
 19 20  1  0
 18 21  1  0
 20 21  2  0
M  END
