mac-x0305-mac-x0358
     RDKit          3D

 20 21  0  0  0  0  0  0  0  0999 V2000
   -0.1630   12.7060   -1.3300 O   0  0  0  0  0  0  0  0  0  0  0  0
   -0.2780   14.0550   -1.4190 C   0  0  0  0  0  0  0  0  0  0  0  0
    0.5290   14.8520   -1.8630 O   0  0  0  0  0  0  0  0  0  0  0  0
    0.2850   11.9710   -2.4090 C   0  0  0  0  0  0  0  0  0  0  0  0
    0.4170   10.7420   -2.4160 O   0  0  0  0  0  0  0  0  0  0  0  0
    0.6190   12.8420   -3.6380 C   0  0  0  0  0  0  0  0  0  0  0  0
   -1.6200   14.5360   -0.9160 C   0  0  0  0  0  0  0  0  0  0  0  0
   -1.9030   14.7570    0.4620 C   0  0  0  0  0  0  0  0  0  0  0  0
   -2.5540   14.7580   -1.9040 N   0  0  0  0  0  0  0  0  0  0  0  0
   -0.5870   13.3780   -4.4000 C   0  0  0  0  0  0  0  0  0  0  0  0
   -1.0570   14.5780    1.5370 O   0  0  0  0  0  0  0  0  0  0  0  0
   -3.1820   15.2180    0.7890 C   0  0  0  0  0  0  0  0  0  0  0  0
   -3.7720   15.2060   -1.5240 C   0  0  0  0  0  0  0  0  0  0  0  0
   -1.4820   12.5240   -5.0650 C   0  0  0  0  0  0  0  0  0  0  0  0
   -0.8410   14.7610   -4.4540 C   0  0  0  0  0  0  0  0  0  0  0  0
   -1.2830   11.1730   -5.0500 O   0  0  0  0  0  0  0  0  0  0  0  0
   -4.1250   15.4460   -0.2120 C   0  0  0  0  0  0  0  0  0  0  0  0
   -2.5910   13.0160   -5.7530 C   0  0  0  0  0  0  0  0  0  0  0  0
   -1.9540   15.2610   -5.1440 C   0  0  0  0  0  0  0  0  0  0  0  0
   -2.8290   14.3900   -5.7920 C   0  0  0  0  0  0  0  0  0  0  0  0
  1  2  1  0
  2  3  2  0
  1  4  1  0
  4  5  2  0
  4  6  1  0
  2  7  1  0
  7  8  2  0
  7  9  1  0
  6 10  1  0
  8 11  1  0
  8 12  1  0
  9 13  2  0
 10 14  2  0
 10 15  1  0
 14 16  1  0
 12 17  2  0
 13 17  1  0
 14 18  1  0
 15 19  2  0
 18 20  2  0
 19 20  1  0
M  END
