mac-x0223-diamond-x0371_0_A
     RDKit          3D

 33 36  0  0  0  0  0  0  0  0999 V2000
    1.1280   18.4320   -5.5120 C   0  0  0  0  0  0  0  0  0  0  0  0
   -0.0420   18.0830   -4.7870 O   0  0  0  0  0  0  0  0  0  0  0  0
   -0.2560   16.7340   -4.7370 C   0  0  0  0  0  0  0  0  0  0  0  0
   -1.5680   16.2550   -4.6840 C   0  0  0  0  0  0  0  0  0  0  0  0
    0.7740   15.7720   -4.7220 C   0  0  0  0  0  0  0  0  0  0  0  0
   -2.6600   16.9840   -4.6270 O   0  0  0  0  0  0  0  0  0  0  0  0
   -1.8410   14.9100   -4.6520 C   0  0  0  0  0  0  0  0  0  0  0  0
    0.4540   14.4010   -4.6600 C   0  0  0  0  0  0  0  0  0  0  0  0
    1.4480   13.2950   -4.5910 C   0  0  0  0  0  0  0  0  0  0  0  0
   -3.3360   15.9750   -3.8490 C   0  0  0  0  0  0  0  0  0  0  0  0
   -0.8510   13.9940   -4.6400 C   0  0  0  0  0  0  0  0  0  0  0  0
    1.0610   12.4240   -3.3960 C   0  0  0  0  0  0  0  0  0  0  0  0
   -2.4790   15.5760   -2.6660 C   0  0  0  0  0  0  0  0  0  0  0  0
    0.4150   11.3880   -3.4170 O   0  0  0  0  0  0  0  0  0  0  0  0
    1.5000   12.9380   -2.2190 O   0  0  0  0  0  0  0  0  0  0  0  0
   -3.3560   15.3480   -1.4860 C   0  0  0  0  0  0  0  0  0  0  0  0
   -2.7930   15.3130   -0.2140 C   0  0  0  0  0  0  0  0  0  0  0  0
   -4.7460   15.1630   -1.6670 C   0  0  0  0  0  0  0  0  0  0  0  0
   -5.5370   14.9340   -0.5450 C   0  0  0  0  0  0  0  0  0  0  0  0
   -3.5680   15.0870    0.9130 C   0  0  0  0  0  0  0  0  0  0  0  0
   -6.8930   14.7170   -0.4410 N   0  0  0  0  0  0  0  0  0  0  0  0
   -4.9290   14.8990    0.6970 C   0  0  0  0  0  0  0  0  0  0  0  0
   -5.9390   14.6490    1.5620 N   0  0  0  0  0  0  0  0  0  0  0  0
   -7.1100   14.5450    0.8500 C   0  0  0  0  0  0  0  0  0  0  0  0
   -8.4010   14.2730    1.5250 C   0  0  0  0  0  0  0  0  0  0  0  0
   -8.2240   14.4620    2.9440 N   0  0  0  0  0  0  0  0  0  0  0  0
   -8.8500   15.5090    3.5880 C   0  0  0  0  0  0  0  0  0  0  0  0
   -9.5000   16.3420    2.9550 O   0  0  0  0  0  0  0  0  0  0  0  0
   -8.6850   15.5320    5.0240 C   0  0  0  0  0  0  0  0  0  0  0  0
   -8.0740   14.4540    5.6040 O   0  0  0  0  0  0  0  0  0  0  0  0
   -9.0200   16.4400    6.0100 C   0  0  0  0  0  0  0  0  0  0  0  0
   -8.5900   15.8830    7.2420 C   0  0  0  0  0  0  0  0  0  0  0  0
   -8.0190   14.6740    6.9370 C   0  0  0  0  0  0  0  0  0  0  0  0
  1  2  1  0
  2  3  1  0
  3  4  2  0
  3  5  1  0
  4  6  1  0
  4  7  1  0
  5  8  2  0
  8  9  1  0
  6 10  1  0
  7 11  2  0
  8 11  1  0
  9 12  1  0
 10 13  1  0
 12 14  2  0
 12 15  1  0
 13 16  1  0
 16 17  2  0
 16 18  1  0
 18 19  2  0
 17 20  1  0
 19 21  1  0
 19 22  1  0
 20 22  2  0
 22 23  1  0
 21 24  2  0
 23 24  1  0
 24 25  1  0
 25 26  1  0
 26 27  1  0
 27 28  2  0
 27 29  1  0
 29 30  1  0
 29 31  2  0
 31 32  1  0
 30 33  1  0
 32 33  2  0
M  END
