mac-x0139-mac-x0159
     RDKit          3D

 22 24  0  0  0  0  0  0  0  0999 V2000
   -2.2400   14.5560   -3.4160 C   0  0  0  0  0  0  0  0  0  0  0  0
   -0.9880   15.2330   -2.8170 C   0  0  2  0  0  0  0  0  0  0  0  0
    0.2630   14.3290   -2.9760 C   0  0  0  0  0  0  0  0  0  0  0  0
   -1.2340   15.3000   -1.2500 C   0  0  0  0  0  0  0  0  0  0  0  0
   -0.5560   16.3790   -3.7440 C   0  0  0  0  0  0  0  0  0  0  0  0
    0.1110   13.0810   -3.8060 C   0  0  0  0  0  0  0  0  0  0  0  0
   -2.4640   15.3670   -0.6700 C   0  0  0  0  0  0  0  0  0  0  0  0
   -0.0790   15.2310   -0.4590 N   0  0  0  0  0  0  0  0  0  0  0  0
    0.7570   16.7600   -3.9930 C   0  0  0  0  0  0  0  0  0  0  0  0
   -1.4930   17.1100   -4.4560 N   0  0  0  0  0  0  0  0  0  0  0  0
    0.8150   12.0310   -3.0260 C   0  0  0  0  0  0  0  0  0  0  0  0
   -2.5350   15.3030    0.8150 C   0  0  0  0  0  0  0  0  0  0  0  0
   -0.2140   15.1440    0.8310 C   0  0  0  0  0  0  0  0  0  0  0  0
   -3.8300   15.4680   -1.0500 C   0  0  0  0  0  0  0  0  0  0  0  0
   -0.8910   18.0070   -5.2110 C   0  0  0  0  0  0  0  0  0  0  0  0
    0.8170   18.0390   -5.1190 S   0  0  0  0  0  0  0  0  0  0  0  0
    1.7230   12.2480   -2.2520 O   0  0  0  0  0  0  0  0  0  0  0  0
    0.3370   10.8010   -3.2470 O   0  0  0  0  0  0  0  0  0  0  0  0
   -1.5880   18.9560   -6.1140 C   0  0  0  0  0  0  0  0  0  0  0  0
   -1.3920   15.0990    1.4990 N   0  0  0  0  0  0  0  0  0  0  0  0
   -3.7460   15.4230    1.2530 N   0  0  0  0  0  0  0  0  0  0  0  0
   -4.5130   15.5170    0.1040 C   0  0  0  0  0  0  0  0  0  0  0  0
  2  1  1  6
  2  3  1  0
  2  4  1  0
  2  5  1  0
  3  6  1  0
  4  7  2  0
  4  8  1  0
  5  9  2  0
  5 10  1  0
  6 11  1  0
  7 12  1  0
  8 13  2  0
  7 14  1  0
 10 15  2  0
  9 16  1  0
 15 16  1  0
 11 17  2  0
 11 18  1  0
 15 19  1  0
 12 20  1  0
 13 20  1  0
 12 21  2  0
 14 22  2  0
 21 22  1  0
M  END
