mac-x0302-mac-x0213
     RDKit          3D

 24 26  0  0  0  0  0  0  0  0999 V2000
    1.9250   14.1890   -2.8850 O   0  0  0  0  0  0  0  0  0  0  0  0
    0.5130   13.6520   -2.9310 S   0  0  0  0  0  0  0  0  0  0  0  0
   -0.6290   12.7620   -2.8580 O   0  0  0  0  0  0  0  0  0  0  0  0
   -0.2410   14.8060   -2.0560 C   0  0  0  0  0  0  0  0  0  0  0  0
    1.1480   12.2170   -2.2310 O   0  0  0  0  0  0  0  0  0  0  0  0
    0.3740   13.7810   -4.4830 C   0  0  0  0  0  0  0  0  0  0  0  0
   -1.5110   14.5680   -1.4940 N   0  0  0  0  0  0  0  0  0  0  0  0
   -1.0880   14.0820   -4.8900 C   0  0  0  0  0  0  0  0  0  0  0  0
    1.1320   14.8750   -5.1460 C   0  0  0  0  0  0  0  0  0  0  0  0
   -2.7630   15.0130   -1.9620 C   0  0  0  0  0  0  0  0  0  0  0  0
   -1.0740   15.5570   -5.0700 C   0  0  0  0  0  0  0  0  0  0  0  0
    0.2160   16.0180   -5.2120 C   0  0  0  0  0  0  0  0  0  0  0  0
   -2.9960   15.3870   -3.1700 O   0  0  0  0  0  0  0  0  0  0  0  0
   -3.8150   15.0290   -1.0100 C   0  0  0  0  0  0  0  0  0  0  0  0
   -2.0840   16.4880   -5.1260 C   0  0  0  0  0  0  0  0  0  0  0  0
    0.4810   17.3490   -5.3940 C   0  0  0  0  0  0  0  0  0  0  0  0
   -5.1460   14.9600   -1.3090 C   0  0  0  0  0  0  0  0  0  0  0  0
   -3.4330   15.1090    0.2930 C   0  0  0  0  0  0  0  0  0  0  0  0
   -1.8120   17.8390   -5.3190 C   0  0  0  0  0  0  0  0  0  0  0  0
   -0.5440   18.2820   -5.4510 C   0  0  0  0  0  0  0  0  0  0  0  0
   -6.0860   14.9580   -0.2980 C   0  0  0  0  0  0  0  0  0  0  0  0
   -4.3510   15.1120    1.3160 C   0  0  0  0  0  0  0  0  0  0  0  0
   -7.4370   14.8830   -0.6280 O   0  0  0  0  0  0  0  0  0  0  0  0
   -5.6820   15.0290    1.0210 C   0  0  0  0  0  0  0  0  0  0  0  0
  1  2  1  0
  2  3  2  0
  2  4  1  0
  2  5  1  0
  2  6  1  0
  4  7  1  0
  6  8  1  0
  6  9  1  0
  7 10  1  0
  8 11  1  0
  9 12  1  0
 11 12  2  0
 10 13  2  0
 10 14  1  0
 11 15  1  0
 12 16  1  0
 14 17  2  0
 14 18  1  0
 15 19  2  0
 16 20  2  0
 19 20  1  0
 17 21  1  0
 18 22  2  0
 21 23  1  0
 21 24  2  0
 22 24  1  0
M  END
