mac-x0182-mac-x0385
     RDKit          3D

 23 25  0  0  0  0  0  0  0  0999 V2000
    1.6990   11.8730   -6.9670 O   0  0  0  0  0  0  0  0  0  0  0  0
    0.7560   11.5790   -6.2790 C   0  0  0  0  0  0  0  0  0  0  0  0
    0.4840   12.1260   -5.0520 N   0  0  0  0  0  0  0  0  0  0  0  0
   -0.2310   10.5380   -6.6520 C   0  0  0  0  0  0  0  0  0  0  0  0
   -0.8030   11.3480   -4.3010 S   0  0  2  0  0  0  0  0  0  0  0  0
   -1.1570   10.3010   -5.6450 C   0  0  0  0  0  0  0  0  0  0  0  0
   -0.2890    9.8300   -7.8460 C   0  0  0  0  0  0  0  0  0  0  0  0
   -1.8420   12.4830   -4.2080 N   0  0  0  0  0  0  0  0  0  0  0  0
   -0.2170   10.5700   -3.2330 O   0  0  0  0  0  0  0  0  0  0  0  0
   -2.1680    9.3670   -5.7600 C   0  0  0  0  0  0  0  0  0  0  0  0
   -1.3070    8.8770   -7.9920 C   0  0  0  0  0  0  0  0  0  0  0  0
   -2.5000   12.8230   -2.9090 C   0  0  0  0  0  0  0  0  0  0  0  0
   -2.2360    8.6490   -6.9570 C   0  0  0  0  0  0  0  0  0  0  0  0
   -2.7690   14.3340   -2.7000 C   0  0  0  0  0  0  0  0  0  0  0  0
   -2.6940   14.6710   -1.2250 C   0  0  0  0  0  0  0  0  0  0  0  0
   -3.7380   15.1020   -0.4020 C   0  0  0  0  0  0  0  0  0  0  0  0
   -1.4570   14.4980   -0.7380 N   0  0  0  0  0  0  0  0  0  0  0  0
   -5.1380   15.3290   -0.8780 C   0  0  0  0  0  0  0  0  0  0  0  0
   -3.3980   15.3120    0.9370 C   0  0  0  0  0  0  0  0  0  0  0  0
   -1.2580   14.7380    0.5560 C   0  0  0  0  0  0  0  0  0  0  0  0
    0.0990   14.5360    1.0480 C   0  0  0  0  0  0  0  0  0  0  0  0
   -4.3360   15.7280    1.8780 N   0  0  0  0  0  0  0  0  0  0  0  0
   -2.1700   15.1350    1.4330 N   0  0  0  0  0  0  0  0  0  0  0  0
  1  2  2  0
  2  3  1  0
  2  4  1  0
  5  3  1  6
  4  6  2  0
  5  6  1  0
  4  7  1  0
  5  8  2  0
  5  9  2  0
  6 10  1  0
  7 11  2  0
  8 12  1  0
 10 13  2  0
 11 13  1  0
 12 14  1  0
 14 15  1  0
 15 16  2  0
 15 17  1  0
 16 18  1  0
 16 19  1  0
 17 20  2  0
 20 21  1  0
 19 22  1  0
 19 23  2  0
 20 23  1  0
M  END
