mac-x0305-diamond-x0685_1_A
     RDKit          3D

 22 23  0  0  0  0  0  0  0  0999 V2000
    0.4120   13.2610    0.0000 O   0  0  0  0  0  0  0  0  0  0  0  0
   -0.0460   13.8540   -1.1900 C   0  0  0  0  0  0  0  0  0  0  0  0
    0.8400   14.9320   -1.4990 O   0  0  0  0  0  0  0  0  0  0  0  0
    0.2460   12.6310   -2.5510 S   0  0  0  0  0  0  0  0  0  0  0  0
   -1.4680   14.4150   -0.9270 C   0  0  0  0  0  0  0  0  0  0  0  0
   -0.4810   12.8110   -4.1790 C   0  0  0  0  0  0  0  0  0  0  0  0
    1.8370   12.4770   -2.8000 O   0  0  0  0  0  0  0  0  0  0  0  0
   -0.2090   11.2380   -1.8720 O   0  0  0  0  0  0  0  0  0  0  0  0
   -1.9070   14.7390    0.3890 C   0  0  0  0  0  0  0  0  0  0  0  0
   -2.3100   14.6070   -2.0080 N   0  0  0  0  0  0  0  0  0  0  0  0
   -1.1320   14.5850    1.5220 O   0  0  0  0  0  0  0  0  0  0  0  0
   -1.7010   11.9460   -4.4790 C   0  0  0  0  0  0  0  0  0  0  0  0
   -3.1900   15.2500    0.5870 C   0  0  0  0  0  0  0  0  0  0  0  0
   -3.5520   15.1100   -1.7640 C   0  0  0  0  0  0  0  0  0  0  0  0
   -1.3550   10.5440   -4.7850 N   0  0  0  0  0  0  0  0  0  0  0  0
   -4.0270   15.4410   -0.5050 C   0  0  0  0  0  0  0  0  0  0  0  0
   -0.7320   10.3280   -6.1130 C   0  0  0  0  0  0  0  0  0  0  0  0
   -0.5640    8.8410   -6.4490 C   0  0  0  0  0  0  0  0  0  0  0  0
   -1.5780   10.9910   -7.2270 C   0  0  0  0  0  0  0  0  0  0  0  0
    0.0660    8.6230   -7.8210 C   0  0  0  0  0  0  0  0  0  0  0  0
   -1.0720   10.7310   -8.6560 C   0  0  0  0  0  0  0  0  0  0  0  0
   -0.7550    9.2670   -8.9430 C   0  0  0  0  0  0  0  0  0  0  0  0
  2  1  1  0
  2  3  1  0
  2  4  1  0
  2  5  1  0
  4  6  1  0
  4  7  1  0
  4  8  1  0
  5  9  2  0
  5 10  1  0
  9 11  1  0
  6 12  1  0
  9 13  1  0
 10 14  2  0
 12 15  1  0
 13 16  2  0
 14 16  1  0
 15 17  1  0
 17 18  1  0
 17 19  1  0
 18 20  1  0
 19 21  1  0
 20 22  1  0
 21 22  1  0
M  END
