mac-x0344-diamond-x0524_0_A
     RDKit          3D

 28 30  0  0  0  0  0  0  0  0999 V2000
    1.4830   13.3790   -4.7250 O   0  0  0  0  0  0  0  0  0  0  0  0
    1.1480   12.7400   -3.6060 C   0  0  0  0  0  0  0  0  0  0  0  0
    1.5610   13.0820   -2.5130 O   0  0  0  0  0  0  0  0  0  0  0  0
    0.1970   11.5210   -3.7830 C   0  0  0  0  0  0  0  0  0  0  0  0
    0.1510   10.6540   -2.9270 O   0  0  0  0  0  0  0  0  0  0  0  0
   -0.5340   11.5600   -4.9530 N   0  0  0  0  0  0  0  0  0  0  0  0
   -1.3770   10.5530   -5.4750 C   0  0  0  0  0  0  0  0  0  0  0  0
   -1.4060   10.4400   -6.8480 C   0  0  0  0  0  0  0  0  0  0  0  0
   -2.1610    9.6850   -4.7450 C   0  0  0  0  0  0  0  0  0  0  0  0
   -2.1690    9.4950   -7.5220 C   0  0  0  0  0  0  0  0  0  0  0  0
   -2.9430    8.7240   -5.4050 C   0  0  0  0  0  0  0  0  0  0  0  0
   -0.6410   11.3050   -7.5300 N   0  0  0  0  0  0  0  0  0  0  0  0
   -2.9480    8.6240   -6.7930 C   0  0  0  0  0  0  0  0  0  0  0  0
    0.1030   10.6490   -8.2720 C   0  0  0  0  0  0  0  0  0  0  0  0
    0.1140    9.2970   -8.3670 N   0  0  0  0  0  0  0  0  0  0  0  0
    1.0560    8.8810   -9.2350 C   0  0  0  0  0  0  0  0  0  0  0  0
    1.9570    7.8340   -9.1220 C   0  0  0  0  0  0  0  0  0  0  0  0
    1.0730    9.6820  -10.3590 C   0  0  0  0  0  0  0  0  0  0  0  0
    2.8870    7.6280  -10.1450 C   0  0  0  0  0  0  0  0  0  0  0  0
    1.9740    9.4820  -11.3580 C   0  0  0  0  0  0  0  0  0  0  0  0
    2.9010    8.4660  -11.2710 C   0  0  0  0  0  0  0  0  0  0  0  0
    3.7860    8.3760  -12.3340 N   0  0  0  0  0  0  0  0  0  0  0  0
    4.0980    9.3480  -13.2990 C   0  0  0  0  0  0  0  0  0  0  0  0
    3.3310   10.5250  -13.3850 C   0  0  0  0  0  0  0  0  0  0  0  0
    5.1530    9.1940  -14.1930 C   0  0  0  0  0  0  0  0  0  0  0  0
    3.6080   11.5070  -14.3310 C   0  0  0  0  0  0  0  0  0  0  0  0
    5.4360   10.1740  -15.1430 C   0  0  0  0  0  0  0  0  0  0  0  0
    4.6660   11.3300  -15.2140 C   0  0  0  0  0  0  0  0  0  0  0  0
  1  2  1  0
  2  3  2  0
  2  4  1  0
  4  5  2  0
  4  6  1  0
  6  7  1  0
  7  8  2  0
  7  9  1  0
  8 10  1  0
  9 11  2  0
  8 12  1  0
 10 13  2  0
 11 13  1  0
 12 14  2  3
 14 15  1  0
 15 16  1  0
 16 17  2  0
 16 18  1  0
 17 19  1  0
 18 20  2  0
 19 21  2  0
 20 21  1  0
 21 22  1  0
 22 23  1  0
 23 24  2  0
 23 25  1  0
 24 26  1  0
 25 27  2  0
 26 28  2  0
 27 28  1  0
M  END
