mac-x0437-diamond-x0465_0_A
     RDKit          3D

 16 17  0  0  0  0  0  0  0  0999 V2000
    1.1060   13.1400   -2.3040 O   0  0  0  0  0  0  0  0  0  0  0  0
    0.9730   12.1430   -3.2010 C   0  0  0  0  0  0  0  0  0  0  0  0
    0.6030   11.0430   -2.8440 O   0  0  0  0  0  0  0  0  0  0  0  0
    1.3320   12.5580   -4.6100 C   0  0  1  0  0  0  0  0  0  0  0  0
    0.1710   13.2220   -5.3520 C   0  0  0  0  0  0  0  0  0  0  0  0
    2.5540   13.4420   -4.5090 C   0  0  0  0  0  0  0  0  0  0  0  0
   -0.8650   12.2840   -5.8070 N   0  0  0  0  0  0  0  0  0  0  0  0
   -1.4460   11.3590   -4.8280 C   0  0  0  0  0  0  0  0  0  0  0  0
   -0.7330   11.5180   -7.0700 C   0  0  2  0  0  0  0  0  0  0  0  0
   -1.5370   10.0660   -5.5070 N   0  0  0  0  0  0  0  0  0  0  0  0
   -1.7980   10.4010   -6.8810 C   0  0  2  0  0  0  0  0  0  0  0  0
    0.6120   10.9440   -7.4600 C   0  0  0  0  0  0  0  0  0  0  0  0
   -0.3520    9.3600   -5.4850 F   0  0  0  0  0  0  0  0  0  0  0  0
   -1.6060    9.1970   -7.7590 C   0  0  0  0  0  0  0  0  0  0  0  0
    0.7360    9.7270   -8.0210 C   0  0  0  0  0  0  0  0  0  0  0  0
   -0.4100    8.8990   -8.2820 C   0  0  0  0  0  0  0  0  0  0  0  0
  1  2  1  0
  2  3  2  0
  2  4  1  0
  4  5  1  0
  4  6  1  1
  5  7  1  0
  7  8  1  0
  7  9  1  0
  8 10  1  0
  9 11  1  0
 10 11  1  0
  9 12  1  1
 10 13  1  0
 11 14  1  6
 12 15  2  0
 14 16  2  0
 15 16  1  0
M  END
