mac-x0347-mac-x0394
     RDKit          3D

 24 26  0  0  0  0  0  0  0  0999 V2000
    0.9030   13.7920   -3.3840 O   0  0  0  0  0  0  0  0  0  0  0  0
    0.0560   13.0520   -2.4940 C   0  0  0  0  0  0  0  0  0  0  0  0
    0.5690   13.0840   -1.1610 O   0  0  0  0  0  0  0  0  0  0  0  0
    0.3980   14.8660   -4.0800 C   0  0  0  0  0  0  0  0  0  0  0  0
    0.0490   11.6700   -2.7960 O   0  0  0  0  0  0  0  0  0  0  0  0
   -1.3390   13.6490   -2.4920 C   0  0  0  0  0  0  0  0  0  0  0  0
   -0.9310   14.7200   -4.5080 C   0  0  0  0  0  0  0  0  0  0  0  0
    1.0510   16.0430   -4.3850 C   0  0  0  0  0  0  0  0  0  0  0  0
   -2.0850   13.8410   -1.3240 C   0  0  0  0  0  0  0  0  0  0  0  0
   -1.9560   14.0390   -3.6760 C   0  0  0  0  0  0  0  0  0  0  0  0
   -1.5890   15.7400   -5.2140 C   0  0  0  0  0  0  0  0  0  0  0  0
    0.3780   17.0430   -5.0980 C   0  0  0  0  0  0  0  0  0  0  0  0
    1.1460   18.5000   -5.5110 Cl  0  0  0  0  0  0  0  0  0  0  0  0
   -3.2230   15.5770   -5.7470 Cl  0  0  0  0  0  0  0  0  0  0  0  0
   -3.3680   14.3910   -1.3900 C   0  0  0  0  0  0  0  0  0  0  0  0
   -3.1900   14.5810   -3.7700 N   0  0  0  0  0  0  0  0  0  0  0  0
   -0.9270   16.9040   -5.5040 C   0  0  0  0  0  0  0  0  0  0  0  0
   -3.8610   14.7430   -2.6300 C   0  0  0  0  0  0  0  0  0  0  0  0
   -4.1830   14.5820   -0.2160 C   0  0  0  0  0  0  0  0  0  0  0  0
   -3.7730   15.3520    0.8700 C   0  0  0  0  0  0  0  0  0  0  0  0
   -5.4360   13.9550   -0.1780 C   0  0  0  0  0  0  0  0  0  0  0  0
   -4.6040   15.4850    1.9700 C   0  0  0  0  0  0  0  0  0  0  0  0
   -6.2650   14.0880    0.9200 C   0  0  0  0  0  0  0  0  0  0  0  0
   -5.8470   14.8530    1.9970 C   0  0  0  0  0  0  0  0  0  0  0  0
  2  1  1  0
  2  3  1  0
  1  4  1  0
  2  5  1  0
  2  6  1  0
  4  7  2  0
  4  8  1  0
  6  9  2  0
  6 10  1  0
  7 11  1  0
  8 12  2  0
 12 13  1  0
 11 14  1  0
  9 15  1  0
 10 16  2  0
 11 17  2  0
 12 17  1  0
 15 18  2  0
 16 18  1  0
 15 19  1  0
 19 20  2  0
 19 21  1  0
 20 22  1  0
 21 23  2  0
 22 24  2  0
 23 24  1  0
M  END
