mac-x0182-mac-x0277
     RDKit          3D

 23 25  0  0  0  0  0  0  0  0999 V2000
    1.7150   11.7440   -6.9560 O   0  0  0  0  0  0  0  0  0  0  0  0
    0.6430   11.5510   -6.4330 C   0  0  0  0  0  0  0  0  0  0  0  0
    0.0600   12.3150   -5.4720 N   0  0  0  0  0  0  0  0  0  0  0  0
   -0.2280   10.4030   -6.7300 C   0  0  0  0  0  0  0  0  0  0  0  0
   -0.8580   11.3480   -4.4440 S   0  0  2  0  0  0  0  0  0  0  0  0
   -1.1220   10.1620   -5.6900 C   0  0  0  0  0  0  0  0  0  0  0  0
   -0.2270    9.6130   -7.8630 C   0  0  0  0  0  0  0  0  0  0  0  0
   -2.0830   12.0750   -4.2550 O   0  0  0  0  0  0  0  0  0  0  0  0
    0.1590   11.0220   -3.3690 N   0  0  0  0  0  0  0  0  0  0  0  0
   -2.0450    9.1370   -5.7220 C   0  0  0  0  0  0  0  0  0  0  0  0
   -1.1550    8.5680   -7.9270 C   0  0  0  0  0  0  0  0  0  0  0  0
    0.7550   12.1700   -2.7890 C   0  0  0  0  0  0  0  0  0  0  0  0
   -2.0550    8.3300   -6.8650 C   0  0  0  0  0  0  0  0  0  0  0  0
    0.6890   12.4180   -1.5740 O   0  0  0  0  0  0  0  0  0  0  0  0
    1.5070   13.1290   -3.7290 C   0  0  0  0  0  0  0  0  0  0  0  0
    0.7590   14.4070   -4.1380 C   0  0  0  0  0  0  0  0  0  0  0  0
   -0.6110   14.4370   -4.4840 C   0  0  0  0  0  0  0  0  0  0  0  0
    1.4600   15.6140   -4.1710 C   0  0  0  0  0  0  0  0  0  0  0  0
   -1.2430   15.6390   -4.8480 C   0  0  0  0  0  0  0  0  0  0  0  0
    0.8330   16.8110   -4.5340 C   0  0  0  0  0  0  0  0  0  0  0  0
   -2.9220   15.6020   -5.2600 Cl  0  0  0  0  0  0  0  0  0  0  0  0
   -0.5190   16.8250   -4.8730 C   0  0  0  0  0  0  0  0  0  0  0  0
   -1.2410   18.3290   -5.3140 Cl  0  0  0  0  0  0  0  0  0  0  0  0
  1  2  2  0
  2  3  1  0
  2  4  1  0
  5  3  1  6
  4  6  2  0
  5  6  1  0
  4  7  1  0
  5  8  2  0
  5  9  2  0
  6 10  1  0
  7 11  2  0
  9 12  1  0
 10 13  2  0
 11 13  1  0
 12 14  2  0
 12 15  1  0
 15 16  1  0
 16 17  2  0
 16 18  1  0
 17 19  1  0
 18 20  2  0
 19 21  1  0
 19 22  2  0
 20 22  1  0
 22 23  1  0
M  END
