mac-x0417-mac-x0224
     RDKit          3D

 23 25  0  0  0  0  0  0  0  0999 V2000
   -0.0350   12.4860   -2.9140 N   0  0  0  0  0  0  0  0  0  0  0  0
    0.9870   12.0860   -3.6910 C   0  0  0  0  0  0  0  0  0  0  0  0
    1.8530   11.2970   -3.3940 O   0  0  0  0  0  0  0  0  0  0  0  0
   -0.3600   13.7360   -2.8850 C   0  0  0  0  0  0  0  0  0  0  0  0
    0.8780   12.7330   -5.0500 C   0  0  0  0  0  0  0  0  0  0  0  0
   -1.5300   14.3280   -2.2520 C   0  0  0  0  0  0  0  0  0  0  0  0
    0.4260   11.7960   -6.1100 C   0  0  0  0  0  0  0  0  0  0  0  0
   -1.6920   14.3860   -0.8720 C   0  0  0  0  0  0  0  0  0  0  0  0
   -2.4990   14.8220   -3.1050 C   0  0  0  0  0  0  0  0  0  0  0  0
   -2.3380   14.7730   -4.4620 O   0  0  0  0  0  0  0  0  0  0  0  0
    1.2560   11.6080   -7.1300 N   0  0  0  0  0  0  0  0  0  0  0  0
   -0.7640   11.0070   -6.2710 C   0  0  0  0  0  0  0  0  0  0  0  0
   -2.8690   14.9520   -0.3570 C   0  0  0  0  0  0  0  0  0  0  0  0
   -3.6580   15.3770   -2.6110 C   0  0  0  0  0  0  0  0  0  0  0  0
   -3.0710   15.0190    1.4030 S   0  0  0  0  0  0  0  0  0  0  0  0
    0.6420   10.7270   -7.9970 O   0  0  0  0  0  0  0  0  0  0  0  0
   -0.5560   10.3610   -7.4900 C   0  0  0  0  0  0  0  0  0  0  0  0
   -1.9620   10.7410   -5.5830 C   0  0  0  0  0  0  0  0  0  0  0  0
   -3.8500   15.4450   -1.2380 C   0  0  0  0  0  0  0  0  0  0  0  0
   -4.8730   15.1180    1.4830 C   0  0  0  0  0  0  0  0  0  0  0  0
   -1.4470    9.4640   -8.0810 C   0  0  0  0  0  0  0  0  0  0  0  0
   -2.8810    9.8350   -6.1500 C   0  0  0  0  0  0  0  0  0  0  0  0
   -2.6240    9.2100   -7.3780 C   0  0  0  0  0  0  0  0  0  0  0  0
  1  2  1  0
  2  3  2  0
  1  4  2  3
  2  5  1  0
  4  6  1  0
  5  7  1  0
  6  8  2  0
  6  9  1  0
  9 10  1  0
  7 11  2  0
  7 12  1  0
  8 13  1  0
  9 14  2  0
 13 15  1  0
 11 16  1  0
 12 17  2  0
 16 17  1  0
 12 18  1  0
 13 19  2  0
 14 19  1  0
 15 20  1  0
 17 21  1  0
 18 22  2  0
 21 23  2  0
 22 23  1  0
M  END
