mac-x0182-diamond-x0592_0_A
     RDKit          3D

 25 27  0  0  0  0  0  0  0  0999 V2000
    1.6940   11.8830   -6.9200 O   0  0  0  0  0  0  0  0  0  0  0  0
    0.7620   11.5970   -6.2080 C   0  0  0  0  0  0  0  0  0  0  0  0
    0.5190   12.1320   -4.9690 N   0  0  0  0  0  0  0  0  0  0  0  0
   -0.2490   10.5780   -6.5740 C   0  0  0  0  0  0  0  0  0  0  0  0
   -0.6410   11.2380   -4.1310 S   0  0  2  0  0  0  0  0  0  0  0  0
   -1.1020   10.2790   -5.5170 C   0  0  0  0  0  0  0  0  0  0  0  0
   -0.3860    9.9490   -7.8030 C   0  0  0  0  0  0  0  0  0  0  0  0
   -1.6400   12.3380   -3.7490 N   0  0  0  0  0  0  0  0  0  0  0  0
    0.0980   10.4070   -3.2130 O   0  0  0  0  0  0  0  0  0  0  0  0
   -2.1220    9.3510   -5.6340 C   0  0  0  0  0  0  0  0  0  0  0  0
   -1.4100    9.0040   -7.9490 C   0  0  0  0  0  0  0  0  0  0  0  0
   -1.1160   13.6320   -3.2030 C   0  0  0  0  0  0  0  0  0  0  0  0
   -2.2710    8.7080   -6.8720 C   0  0  0  0  0  0  0  0  0  0  0  0
   -1.3700   13.9200   -1.6920 C   0  0  0  0  0  0  0  0  0  0  0  0
   -2.7840   14.1930   -1.4070 N   0  0  0  0  0  0  0  0  0  0  0  0
   -3.2610   14.6140   -0.2860 C   0  0  0  0  0  0  0  0  0  0  0  0
   -2.6740   14.9340    0.9120 N   0  0  0  0  0  0  0  0  0  0  0  0
   -4.7070   14.7580   -0.3030 C   0  0  0  0  0  0  0  0  0  0  0  0
   -5.5490   15.2270   -1.3410 C   0  0  0  0  0  0  0  0  0  0  0  0
   -5.5930   14.4480    0.7150 C   0  0  0  0  0  0  0  0  0  0  0  0
   -6.8430   15.2110   -1.0170 N   0  0  0  0  0  0  0  0  0  0  0  0
   -6.8440   14.7300    0.2420 N   0  0  0  0  0  0  0  0  0  0  0  0
   -8.1100   14.5670    0.9390 C   0  0  0  0  0  0  0  0  0  0  0  0
   -7.9180   14.0400    2.3570 C   0  0  0  0  0  0  0  0  0  0  0  0
   -7.2770   14.9950    3.1980 O   0  0  0  0  0  0  0  0  0  0  0  0
  1  2  2  0
  2  3  1  0
  2  4  1  0
  5  3  1  6
  4  6  2  0
  5  6  1  0
  4  7  1  0
  5  8  2  0
  5  9  2  0
  6 10  1  0
  7 11  2  0
  8 12  1  0
 10 13  2  0
 11 13  1  0
 12 14  1  0
 14 15  1  0
 15 16  2  3
 16 17  1  0
 16 18  1  0
 18 19  1  0
 18 20  2  0
 19 21  2  0
 20 22  1  0
 21 22  1  0
 22 23  1  0
 23 24  1  0
 24 25  1  0
M  END
