mac-x0509-diamond-x0766_0_A
     RDKit          3D

 25 28  0  0  0  0  0  0  0  0999 V2000
   -2.9140    7.7900   -6.4090 O   0  0  0  0  0  0  0  0  0  0  0  0
   -2.0400    8.5490   -6.7880 C   0  0  0  0  0  0  0  0  0  0  0  0
   -2.1600    9.7280   -7.7480 C   0  0  0  0  0  0  0  0  0  0  0  0
   -0.7140    8.5680   -6.4480 N   0  0  0  0  0  0  0  0  0  0  0  0
   -0.4690    9.2060   -5.1550 C   0  0  0  0  0  0  0  0  0  0  0  0
   -0.8810    9.5250   -8.4910 C   0  0  0  0  0  0  0  0  0  0  0  0
   -0.0280    8.7920   -7.6710 C   0  0  0  0  0  0  0  0  0  0  0  0
   -0.3100   10.7530   -5.0640 C   0  0  0  0  0  0  0  0  0  0  0  0
   -0.5150    9.9360   -9.7590 C   0  0  0  0  0  0  0  0  0  0  0  0
    1.2240    8.4240   -8.1190 C   0  0  0  0  0  0  0  0  0  0  0  0
   -0.6550   11.3210   -3.7610 O   0  0  0  0  0  0  0  0  0  0  0  0
    0.7530    9.5800  -10.2170 C   0  0  0  0  0  0  0  0  0  0  0  0
    1.6140    8.8240   -9.4060 C   0  0  0  0  0  0  0  0  0  0  0  0
    0.2860   11.9280   -2.9700 C   0  0  0  0  0  0  0  0  0  0  0  0
    0.7150   11.4580   -1.9280 O   0  0  0  0  0  0  0  0  0  0  0  0
    0.7730   13.2780   -3.4320 C   0  0  1  0  0  0  0  0  0  0  0  0
    1.0230   13.5150   -4.9180 C   0  0  0  0  0  0  0  0  0  0  0  0
    0.1530   14.5740   -2.8610 C   0  0  1  0  0  0  0  0  0  0  0  0
    1.3220   15.0040   -4.9100 C   0  0  0  0  0  0  0  0  0  0  0  0
    0.2470   15.5800   -4.0140 C   0  0  0  0  0  0  0  0  0  0  0  0
   -1.1970   14.6230   -2.1650 C   0  0  0  0  0  0  0  0  0  0  0  0
   -2.4370   14.7020   -2.7930 C   0  0  0  0  0  0  0  0  0  0  0  0
   -1.3720   14.6050   -0.7430 C   0  0  0  0  0  0  0  0  0  0  0  0
   -2.6900   14.6750   -0.3560 C   0  0  0  0  0  0  0  0  0  0  0  0
   -3.7450   14.7620   -1.6890 S   0  0  0  0  0  0  0  0  0  0  0  0
  1  2  2  0
  2  3  1  0
  2  4  1  0
  4  5  1  0
  3  6  1  0
  4  7  1  0
  6  7  2  0
  5  8  1  0
  6  9  1  0
  7 10  1  0
  8 11  1  0
  9 12  2  0
 10 13  2  0
 12 13  1  0
 11 14  1  0
 14 15  2  0
 16 14  1  6
 16 17  1  0
 16 18  1  0
 17 19  1  0
 18 20  1  0
 19 20  1  0
 18 21  1  6
 21 22  2  0
 21 23  1  0
 23 24  2  0
 22 25  1  0
 24 25  1  0
M  END
