mac-x0398-diamond-x0591_0_A
     RDKit          3D

 24 25  0  0  0  0  0  0  0  0999 V2000
   -5.5550   14.9420    1.5970 N   0  0  0  0  0  0  0  0  0  0  0  0
   -6.5960   14.1250    1.1340 N   0  0  0  0  0  0  0  0  0  0  0  0
   -7.1240   14.3520   -0.1370 C   0  0  0  0  0  0  0  0  0  0  0  0
   -4.4900   14.9040    0.6950 C   0  0  0  0  0  0  0  0  0  0  0  0
   -4.5810   15.4910   -0.5690 C   0  0  0  0  0  0  0  0  0  0  0  0
   -3.3110   14.2560    1.0610 C   0  0  0  0  0  0  0  0  0  0  0  0
   -8.2740   14.7540   -0.3080 O   0  0  0  0  0  0  0  0  0  0  0  0
   -3.5090   15.4140   -1.4540 C   0  0  0  0  0  0  0  0  0  0  0  0
   -2.2350   14.1830    0.1800 C   0  0  0  0  0  0  0  0  0  0  0  0
   -6.2650   14.0940   -1.3550 C   0  0  0  0  0  0  0  0  0  0  0  0
   -3.6280   15.9920   -2.6930 O   0  0  0  0  0  0  0  0  0  0  0  0
   -2.3210   14.7580   -1.0920 C   0  0  0  0  0  0  0  0  0  0  0  0
   -5.1870   13.1770   -1.2790 C   0  0  0  0  0  0  0  0  0  0  0  0
   -6.5020   14.7400   -2.5820 C   0  0  0  0  0  0  0  0  0  0  0  0
   -1.1140   14.6210   -1.9650 C   0  0  0  0  0  0  0  0  0  0  0  0
   -4.3730   12.9220   -2.4040 C   0  0  0  0  0  0  0  0  0  0  0  0
   -5.6950   14.4830   -3.6980 C   0  0  0  0  0  0  0  0  0  0  0  0
   -1.0760   15.0490   -3.1080 O   0  0  0  0  0  0  0  0  0  0  0  0
   -0.0610   13.9870   -1.3990 O   0  0  0  0  0  0  0  0  0  0  0  0
   -4.6330   13.5820   -3.6170 C   0  0  0  0  0  0  0  0  0  0  0  0
   -3.6310   13.2900   -5.0740 S   0  0  0  0  0  0  0  0  0  0  0  0
   -2.1670   14.0310   -4.6980 N   0  0  0  0  0  0  0  0  0  0  0  0
   -3.3390   11.8760   -5.1510 O   0  0  0  0  0  0  0  0  0  0  0  0
   -4.1960   14.0260   -6.1820 O   0  0  0  0  0  0  0  0  0  0  0  0
  1  2  1  0
  2  3  1  0
  1  4  1  0
  4  5  2  0
  4  6  1  0
  3  7  2  0
  5  8  1  0
  6  9  2  0
  3 10  1  0
  8 11  1  0
  8 12  2  0
  9 12  1  0
 10 13  2  0
 10 14  1  0
 12 15  1  0
 13 16  1  0
 14 17  2  0
 15 18  2  0
 15 19  1  0
 16 20  2  0
 17 20  1  0
 20 21  1  0
 21 22  1  0
 21 23  2  0
 21 24  2  0
M  END
