mac-x0337-diamond-x0253_0_A
     RDKit          3D

 28 29  0  0  0  0  0  0  0  0999 V2000
   -5.7990    9.2570   -2.1030 C   0  0  0  0  0  0  0  0  0  0  0  0
   -5.2730   10.6280   -1.7740 C   0  0  0  0  0  0  0  0  0  0  0  0
   -5.9660   11.4600   -0.8850 C   0  0  0  0  0  0  0  0  0  0  0  0
   -4.0850   11.0870   -2.3520 C   0  0  0  0  0  0  0  0  0  0  0  0
   -3.5970   12.3610   -2.0510 C   0  0  0  0  0  0  0  0  0  0  0  0
   -5.4830   12.7360   -0.5790 C   0  0  0  0  0  0  0  0  0  0  0  0
   -4.2970   13.1860   -1.1660 C   0  0  0  0  0  0  0  0  0  0  0  0
   -3.6940   14.8100   -0.7830 S   0  0  2  0  0  0  0  0  0  0  0  0
   -3.3360   15.4800   -2.0100 O   0  0  0  0  0  0  0  0  0  0  0  0
   -2.9210   14.8080    0.5370 N   0  0  0  0  0  0  0  0  0  0  0  0
   -5.0070   15.6840   -0.2050 N   0  0  0  0  0  0  0  0  0  0  0  0
   -1.4700   14.5730    0.5790 C   0  0  0  0  0  0  0  0  0  0  0  0
   -1.0420   14.1310   -0.8110 C   0  0  0  0  0  0  0  0  0  0  0  0
    0.4420   13.8060   -0.8630 C   0  0  0  0  0  0  0  0  0  0  0  0
    0.8730   13.6230   -2.2340 N   0  0  0  0  0  0  0  0  0  0  0  0
    0.8000   12.5750   -2.9670 C   0  0  0  0  0  0  0  0  0  0  0  0
    0.3010   11.3560   -2.6340 O   0  0  0  0  0  0  0  0  0  0  0  0
    1.3260   12.6760   -4.3810 C   0  0  0  0  0  0  0  0  0  0  0  0
    0.5040   11.9600   -5.3500 N   0  0  0  0  0  0  0  0  0  0  0  0
    1.0670   11.6510   -6.5540 C   0  0  0  0  0  0  0  0  0  0  0  0
    2.1550   12.1310   -6.7660 O   0  0  0  0  0  0  0  0  0  0  0  0
    0.4570   10.7470   -7.5580 C   0  0  0  0  0  0  0  0  0  0  0  0
   -0.5190    9.8440   -7.1240 C   0  0  0  0  0  0  0  0  0  0  0  0
    0.8360   10.7750   -8.9070 C   0  0  0  0  0  0  0  0  0  0  0  0
   -1.1170    8.9700   -8.0410 C   0  0  0  0  0  0  0  0  0  0  0  0
    0.2430    9.9070   -9.8170 C   0  0  0  0  0  0  0  0  0  0  0  0
   -2.1640    8.0070   -7.5580 C   0  0  0  0  0  0  0  0  0  0  0  0
   -0.7300    9.0080   -9.3840 C   0  0  0  0  0  0  0  0  0  0  0  0
  1  2  1  0
  2  3  2  0
  2  4  1  0
  4  5  2  0
  3  6  1  0
  5  7  1  0
  6  7  2  0
  7  8  1  0
  8  9  2  0
  8 10  2  0
  8 11  1  1
 10 12  1  0
 12 13  1  0
 13 14  1  0
 14 15  1  0
 15 16  2  3
 16 17  1  0
 16 18  1  0
 18 19  1  0
 19 20  1  0
 20 21  2  0
 20 22  1  0
 22 23  2  0
 22 24  1  0
 23 25  1  0
 24 26  2  0
 25 27  1  0
 25 28  2  0
 26 28  1  0
M  END
