mac-x0226-diamond-x0742_0_A
     RDKit          3D

 32 36  0  0  0  0  0  0  0  0999 V2000
    1.3180   12.4050   -2.1370 O   0  0  0  0  0  0  0  0  0  0  0  0
    0.3400   11.6960   -2.8720 C   0  0  0  0  0  0  0  0  0  0  0  0
    0.3710   10.3520   -2.3940 O   0  0  0  0  0  0  0  0  0  0  0  0
   -1.0400   12.2510   -2.5890 C   0  0  0  0  0  0  0  0  0  0  0  0
    0.5890   11.7370   -4.3250 C   0  0  0  0  0  0  0  0  0  0  0  0
   -1.0180   13.7440   -2.2890 C   0  0  0  0  0  0  0  0  0  0  0  0
    1.4890   12.5240   -5.0750 C   0  0  0  0  0  0  0  0  0  0  0  0
   -0.0490   10.9740   -5.2650 C   0  0  0  0  0  0  0  0  0  0  0  0
    1.4190   12.2640   -6.3810 N   0  0  0  0  0  0  0  0  0  0  0  0
    0.4640   11.2990   -6.4880 N   0  0  0  0  0  0  0  0  0  0  0  0
   -1.1850   14.0620   -0.8470 C   0  0  0  0  0  0  0  0  0  0  0  0
    0.0700   10.7170   -7.7140 C   0  0  0  0  0  0  0  0  0  0  0  0
   -0.0660   14.1270   -0.0090 C   0  0  0  0  0  0  0  0  0  0  0  0
   -2.4490   14.2900   -0.3000 C   0  0  0  0  0  0  0  0  0  0  0  0
   -1.0700    9.9190   -7.7800 C   0  0  0  0  0  0  0  0  0  0  0  0
    0.8070   10.9230   -8.8730 C   0  0  0  0  0  0  0  0  0  0  0  0
   -3.7730   14.2620   -1.0400 C   0  0  1  0  0  0  0  0  0  0  0  0
   -0.2510   14.4120    1.3260 C   0  0  0  0  0  0  0  0  0  0  0  0
   -2.5010   14.5710    1.0500 C   0  0  0  0  0  0  0  0  0  0  0  0
   -1.4480    9.3480   -8.9940 C   0  0  0  0  0  0  0  0  0  0  0  0
    0.4380   10.3620  -10.0800 C   0  0  0  0  0  0  0  0  0  0  0  0
   -5.0190   13.6950   -0.2460 C   0  0  1  0  0  0  0  0  0  0  0  0
   -4.3170   15.4750   -1.7950 C   0  0  0  0  0  0  0  0  0  0  0  0
   -1.4400   14.6340    1.8610 N   0  0  0  0  0  0  0  0  0  0  0  0
   -3.8150   14.8260    1.6700 C   0  0  0  0  0  0  0  0  0  0  0  0
   -5.4860   12.2540   -0.5400 C   0  0  0  0  0  0  0  0  0  0  0  0
   -0.6950    9.5690  -10.1470 C   0  0  0  0  0  0  0  0  0  0  0  0
   -4.8190   13.7540    1.2830 C   0  0  0  0  0  0  0  0  0  0  0  0
   -6.2070   14.5720   -0.6860 C   0  0  0  0  0  0  0  0  0  0  0  0
   -5.7860   15.1660   -2.0140 C   0  0  0  0  0  0  0  0  0  0  0  0
   -4.9880   11.6110   -1.4760 O   0  0  0  0  0  0  0  0  0  0  0  0
   -6.5600   11.6260    0.3050 C   0  0  0  0  0  0  0  0  0  0  0  0
  2  1  1  0
  2  3  1  0
  2  4  1  0
  2  5  1  0
  4  6  1  0
  5  7  1  0
  5  8  2  0
  7  9  2  0
  8 10  1  0
  9 10  1  0
  6 11  1  0
 10 12  1  0
 11 13  2  0
 11 14  1  0
 12 15  2  0
 12 16  1  0
 14 17  1  0
 13 18  1  0
 14 19  2  0
 15 20  1  0
 16 21  2  0
 17 22  1  0
 17 23  1  1
 18 24  2  0
 19 24  1  0
 19 25  1  0
 22 26  1  6
 20 27  2  0
 21 27  1  0
 22 28  1  0
 25 28  1  0
 22 29  1  0
 23 30  1  0
 29 30  1  0
 26 31  2  0
 26 32  1  0
M  END
