mac-x0380-diamond-x0967_0_A
     RDKit          3D

 14 15  0  0  0  0  0  0  0  0999 V2000
   -1.3480   14.7440   -2.5040 O   0  0  0  0  0  0  0  0  0  0  0  0
   -2.6500   15.0050   -2.7540 C   0  0  0  0  0  0  0  0  0  0  0  0
   -3.0840   15.2230   -3.8720 O   0  0  0  0  0  0  0  0  0  0  0  0
   -3.5110   15.0040   -1.5450 C   0  0  0  0  0  0  0  0  0  0  0  0
   -4.9000   15.0580   -1.6590 C   0  0  0  0  0  0  0  0  0  0  0  0
   -2.9150   14.9420   -0.2780 C   0  0  0  0  0  0  0  0  0  0  0  0
   -5.6980   15.0440   -0.5100 C   0  0  0  0  0  0  0  0  0  0  0  0
   -3.7120   14.9330    0.8720 C   0  0  0  0  0  0  0  0  0  0  0  0
   -5.1030   14.9810    0.7560 C   0  0  0  0  0  0  0  0  0  0  0  0
   -7.4630   15.1010   -0.7040 S   0  0  0  0  0  0  0  0  0  0  0  0
   -5.8710   14.9580    1.9370 N   0  0  0  0  0  0  0  0  0  0  0  0
   -7.8790   14.1260    0.7560 C   0  0  0  0  0  0  0  0  0  0  0  0
   -7.2020   14.6360    2.0030 C   0  0  0  0  0  0  0  0  0  0  0  0
   -7.8290   14.7770    3.0590 O   0  0  0  0  0  0  0  0  0  0  0  0
  1  2  1  0
  2  3  2  0
  2  4  1  0
  4  5  2  0
  4  6  1  0
  5  7  1  0
  6  8  2  0
  7  9  2  0
  8  9  1  0
  7 10  1  0
  9 11  1  0
 10 12  1  0
 11 13  1  0
 12 13  1  0
 13 14  2  0
M  END
