mac-x0415-mac-x0303
     RDKit          3D

 29 32  0  0  0  0  0  0  0  0999 V2000
    0.1090   11.0450   -3.1330 O   0  0  0  0  0  0  0  0  0  0  0  0
    0.8050   12.1990   -3.2020 C   0  0  0  0  0  0  0  0  0  0  0  0
    1.2430   12.7390   -2.1970 O   0  0  0  0  0  0  0  0  0  0  0  0
    0.9860   12.7700   -4.6020 C   0  0  0  0  0  0  0  0  0  0  0  0
    0.7510   14.2260   -4.5640 C   0  0  0  0  0  0  0  0  0  0  0  0
    1.7820   15.2340   -4.3630 C   0  0  0  0  0  0  0  0  0  0  0  0
   -0.3180   15.0050   -4.6990 C   0  0  0  0  0  0  0  0  0  0  0  0
    1.4310   16.4820   -4.3580 N   0  0  0  0  0  0  0  0  0  0  0  0
    0.0070   16.4330   -4.4780 C   0  0  1  0  0  0  0  0  0  0  0  0
   -1.6830   14.7060   -4.9630 C   0  0  0  0  0  0  0  0  0  0  0  0
   -0.7300   17.3940   -5.3420 C   0  0  0  0  0  0  0  0  0  0  0  0
   -2.4700   15.6790   -5.4890 C   0  0  0  0  0  0  0  0  0  0  0  0
   -3.7940   15.5030   -5.7510 O   0  0  0  0  0  0  0  0  0  0  0  0
   -1.9360   17.0150   -5.8070 C   0  0  0  0  0  0  0  0  0  0  0  0
   -4.3430   14.7920   -4.6540 C   0  0  0  0  0  0  0  0  0  0  0  0
   -3.5070   15.3120   -3.4780 C   0  0  0  0  0  0  0  0  0  0  0  0
   -4.1410   15.1780   -2.1360 C   0  0  0  0  0  0  0  0  0  0  0  0
   -5.5300   15.0920   -2.0240 C   0  0  0  0  0  0  0  0  0  0  0  0
   -3.3130   15.1330   -1.0090 C   0  0  0  0  0  0  0  0  0  0  0  0
   -6.0340   14.9500   -0.7430 C   0  0  0  0  0  0  0  0  0  0  0  0
   -3.8430   14.9980    0.2680 C   0  0  0  0  0  0  0  0  0  0  0  0
   -7.3070   14.8290   -0.2590 N   0  0  0  0  0  0  0  0  0  0  0  0
   -5.2270   14.9020    0.3890 C   0  0  0  0  0  0  0  0  0  0  0  0
   -7.2310   14.7100    1.1020 C   0  0  0  0  0  0  0  0  0  0  0  0
   -5.9810   14.7560    1.5080 N   0  0  0  0  0  0  0  0  0  0  0  0
   -8.6480   14.5340    2.1230 S   0  0  0  0  0  0  0  0  0  0  0  0
   -8.5550   12.9700    2.7750 N   0  0  0  0  0  0  0  0  0  0  0  0
   -8.4810   15.4290    3.2400 O   0  0  0  0  0  0  0  0  0  0  0  0
   -9.8100   14.5300    1.2720 O   0  0  0  0  0  0  0  0  0  0  0  0
  1  2  1  0
  2  3  2  0
  2  4  1  0
  4  5  1  0
  5  6  1  0
  5  7  2  0
  6  8  2  0
  7  9  1  0
  8  9  1  0
  7 10  1  0
  9 11  1  6
 10 12  2  0
 12 13  1  0
 11 14  2  0
 12 14  1  0
 13 15  1  0
 15 16  1  0
 16 17  1  0
 17 18  2  0
 17 19  1  0
 18 20  1  0
 19 21  2  0
 20 22  1  0
 20 23  2  0
 21 23  1  0
 22 24  1  0
 23 25  1  0
 24 25  2  0
 24 26  1  0
 26 27  1  0
 26 28  2  0
 26 29  2  0
M  END
