mac-x0303-mac-x0263
     RDKit          3D

 16 17  0  0  0  0  0  0  0  0999 V2000
   -8.4780   12.9200    2.6710 N   0  0  0  0  0  0  0  0  0  0  0  0
   -8.4440   14.5520    2.2650 S   0  0  2  0  0  0  0  0  0  0  0  0
   -7.9800   15.2030    3.4570 O   0  0  0  0  0  0  0  0  0  0  0  0
   -9.7650   14.7840    1.5640 N   0  0  0  0  0  0  0  0  0  0  0  0
   -7.1380   14.7340    1.0820 C   0  0  0  0  0  0  0  0  0  0  0  0
  -10.8170   15.1810    2.3740 C   0  0  0  0  0  0  0  0  0  0  0  0
   -7.2740   14.9200   -0.2750 N   0  0  0  0  0  0  0  0  0  0  0  0
   -5.8630   14.7200    1.4230 N   0  0  0  0  0  0  0  0  0  0  0  0
  -11.7050   14.1930    2.4500 O   0  0  0  0  0  0  0  0  0  0  0  0
  -10.9480   16.2520    2.9470 O   0  0  0  0  0  0  0  0  0  0  0  0
   -6.0090   15.0330   -0.8120 C   0  0  0  0  0  0  0  0  0  0  0  0
   -5.1540   14.9040    0.2720 C   0  0  0  0  0  0  0  0  0  0  0  0
   -5.5510   15.2330   -2.1120 C   0  0  0  0  0  0  0  0  0  0  0  0
   -3.7680   14.9700    0.0860 C   0  0  0  0  0  0  0  0  0  0  0  0
   -4.1630   15.2960   -2.2850 C   0  0  0  0  0  0  0  0  0  0  0  0
   -3.2850   15.1660   -1.2100 C   0  0  0  0  0  0  0  0  0  0  0  0
  2  1  1  1
  2  3  2  0
  2  4  2  0
  2  5  1  0
  4  6  1  0
  5  7  1  0
  5  8  2  0
  6  9  1  0
  6 10  2  0
  7 11  1  0
  8 12  1  0
 11 12  2  0
 11 13  1  0
 12 14  1  0
 13 15  2  0
 14 16  2  0
 15 16  1  0
M  END
