mac-x0439-mac-x0188
     RDKit          3D

 26 29  0  0  0  0  0  0  0  0999 V2000
   -3.0820   16.0390   -5.4760 Cl  0  0  0  0  0  0  0  0  0  0  0  0
   -1.6590   17.0170   -5.6380 C   0  0  0  0  0  0  0  0  0  0  0  0
   -0.3950   16.4750   -5.2150 C   0  0  2  0  0  0  0  0  0  0  0  0
   -1.6840   18.2480   -6.1600 C   0  0  0  0  0  0  0  0  0  0  0  0
   -0.3120   15.4730   -4.2950 C   0  0  0  0  0  0  0  0  0  0  0  0
    0.6140   17.3740   -4.7810 C   0  0  0  0  0  0  0  0  0  0  0  0
   -0.4030   18.9430   -6.2630 C   0  0  0  0  0  0  0  0  0  0  0  0
    0.6640   15.6710   -3.3920 C   0  0  0  0  0  0  0  0  0  0  0  0
    1.1830   16.9380   -3.7910 N   0  0  0  0  0  0  0  0  0  0  0  0
    0.7210   18.5410   -5.6080 C   0  0  0  0  0  0  0  0  0  0  0  0
    0.9740   14.5550   -2.3060 S   0  0  0  0  0  0  0  0  0  0  0  0
    1.6490   13.5490   -1.6030 O   0  0  0  0  0  0  0  0  0  0  0  0
    0.4740   15.1100   -1.0210 O   0  0  0  0  0  0  0  0  0  0  0  0
    2.5440   14.6010   -2.9900 O   0  0  0  0  0  0  0  0  0  0  0  0
   -0.1900   13.8310   -3.4200 C   0  0  0  0  0  0  0  0  0  0  0  0
    0.1700   13.1260   -4.5750 C   0  0  0  0  0  0  0  0  0  0  0  0
   -1.5600   13.8770   -3.3770 C   0  0  0  0  0  0  0  0  0  0  0  0
    1.5780   12.8750   -4.9690 C   0  0  0  0  0  0  0  0  0  0  0  0
   -0.9320   12.7820   -5.1890 O   0  0  0  0  0  0  0  0  0  0  0  0
   -1.9500   13.2080   -4.5260 N   0  0  0  0  0  0  0  0  0  0  0  0
   -2.5340   14.4660   -2.4170 C   0  0  0  0  0  0  0  0  0  0  0  0
   -3.7830   14.9220   -2.8180 C   0  0  0  0  0  0  0  0  0  0  0  0
   -2.2750   14.5890   -1.0690 C   0  0  0  0  0  0  0  0  0  0  0  0
   -4.7130   15.4590   -1.9530 C   0  0  0  0  0  0  0  0  0  0  0  0
   -3.2070   15.1300   -0.1700 C   0  0  0  0  0  0  0  0  0  0  0  0
   -4.4270   15.5660   -0.6160 C   0  0  0  0  0  0  0  0  0  0  0  0
  1  2  1  0
  2  3  1  0
  2  4  2  0
  3  5  1  1
  3  6  1  0
  4  7  1  0
  5  8  2  0
  6  9  2  0
  8  9  1  0
  6 10  1  0
  7 10  2  0
  8 11  1  0
 11 12  1  0
 11 13  2  0
 11 14  1  0
 11 15  1  0
 15 16  2  0
 15 17  1  0
 16 18  1  0
 16 19  1  0
 17 20  2  0
 19 20  1  0
 17 21  1  0
 21 22  2  0
 21 23  1  0
 22 24  1  0
 23 25  2  0
 24 26  2  0
 25 26  1  0
M  END
