mac-x0373-diamond-x1018_0_A
     RDKit          3D

 22 24  0  0  0  0  0  0  0  0999 V2000
    1.0110   13.5850   -1.7240 O   0  0  0  0  0  0  0  0  0  0  0  0
    0.1000   14.4020   -2.2930 C   0  0  0  0  0  0  0  0  0  0  0  0
    0.4220   15.5160   -2.6490 O   0  0  0  0  0  0  0  0  0  0  0  0
   -1.2280   13.6960   -2.3620 C   0  0  2  0  0  0  0  0  0  0  0  0
   -1.5950   12.8290   -3.5410 C   0  0  0  0  0  0  0  0  0  0  0  0
   -2.3900   14.2380   -1.5110 C   0  0  2  0  0  0  0  0  0  0  0  0
   -0.9420   12.8970   -4.7800 C   0  0  0  0  0  0  0  0  0  0  0  0
   -2.6310   11.9070   -3.3610 C   0  0  0  0  0  0  0  0  0  0  0  0
   -3.3120   15.3950   -1.9360 C   0  0  0  0  0  0  0  0  0  0  0  0
   -1.9720   14.4140   -0.0920 C   0  0  0  0  0  0  0  0  0  0  0  0
   -1.3320   12.0410   -5.8120 C   0  0  0  0  0  0  0  0  0  0  0  0
   -3.0180   11.0600   -4.3850 C   0  0  0  0  0  0  0  0  0  0  0  0
   -4.2650   15.7440   -1.0310 C   0  0  0  0  0  0  0  0  0  0  0  0
   -2.9010   14.7420    0.7530 C   0  0  0  0  0  0  0  0  0  0  0  0
   -2.3680   11.1250   -5.6120 C   0  0  0  0  0  0  0  0  0  0  0  0
   -4.2950   14.9360    0.2450 C   0  0  2  0  0  0  0  0  0  0  0  0
   -4.9180   13.7050   -0.2950 N   0  0  0  0  0  0  0  0  0  0  0  0
   -5.0290   15.3690    1.4700 C   0  0  0  0  0  0  0  0  0  0  0  0
   -6.3570   13.9730   -0.4960 N   0  0  0  0  0  0  0  0  0  0  0  0
   -6.2560   14.9090    1.7540 C   0  0  0  0  0  0  0  0  0  0  0  0
   -6.9650   13.9770    0.8380 C   0  0  1  0  0  0  0  0  0  0  0  0
   -8.6330   14.5380    0.6330 Cl  0  0  0  0  0  0  0  0  0  0  0  0
  1  2  1  0
  2  3  2  0
  4  2  1  6
  4  5  1  0
  4  6  1  0
  5  7  2  0
  5  8  1  0
  6  9  1  6
  6 10  1  0
  7 11  1  0
  8 12  2  0
  9 13  2  0
 10 14  2  0
 11 15  2  0
 12 15  1  0
 16 13  1  6
 14 16  1  0
 16 17  1  0
 16 18  1  0
 17 19  1  0
 18 20  2  0
 19 21  1  0
 20 21  1  0
 21 22  1  6
M  END
