mac-x0415-mac-x0345
     RDKit          3D

 24 26  0  0  0  0  0  0  0  0999 V2000
    0.0930   11.0510   -2.6280 O   0  0  0  0  0  0  0  0  0  0  0  0
    0.6510   12.2650   -2.7880 C   0  0  0  0  0  0  0  0  0  0  0  0
    0.9870   12.9240   -1.8260 O   0  0  0  0  0  0  0  0  0  0  0  0
    0.7740   12.6170   -4.2470 C   0  0  0  0  0  0  0  0  0  0  0  0
    0.6690   14.0650   -4.5160 C   0  0  0  0  0  0  0  0  0  0  0  0
    1.7430   15.0350   -4.2870 C   0  0  0  0  0  0  0  0  0  0  0  0
   -0.3090   14.8700   -4.9360 C   0  0  0  0  0  0  0  0  0  0  0  0
    1.5080   16.2770   -4.5530 N   0  0  0  0  0  0  0  0  0  0  0  0
    0.1950   16.2550   -5.1290 C   0  0  2  0  0  0  0  0  0  0  0  0
   -1.6990   14.6100   -5.2450 C   0  0  0  0  0  0  0  0  0  0  0  0
   -0.7630   17.3210   -4.8420 C   0  0  0  0  0  0  0  0  0  0  0  0
   -2.5500   15.6670   -5.2120 C   0  0  0  0  0  0  0  0  0  0  0  0
   -3.9230   15.5500   -5.4460 O   0  0  0  0  0  0  0  0  0  0  0  0
   -2.0590   17.0140   -4.9060 C   0  0  0  0  0  0  0  0  0  0  0  0
   -4.5360   14.4330   -4.7450 C   0  0  0  0  0  0  0  0  0  0  0  0
   -5.6800   14.7720   -3.8610 N   0  0  0  0  0  0  0  0  0  0  0  0
   -5.3950   14.9400   -2.5000 C   0  0  0  0  0  0  0  0  0  0  0  0
   -4.1340   15.2880   -2.0540 C   0  0  0  0  0  0  0  0  0  0  0  0
   -6.4280   14.7320   -1.6510 N   0  0  0  0  0  0  0  0  0  0  0  0
   -6.2140   14.8630   -0.3130 C   0  0  0  0  0  0  0  0  0  0  0  0
   -3.9210   15.4170   -0.6960 C   0  0  0  0  0  0  0  0  0  0  0  0
   -7.4100   14.6110    0.5680 C   0  0  0  0  0  0  0  0  0  0  0  0
   -4.9570   15.2050    0.1770 C   0  0  0  0  0  0  0  0  0  0  0  0
   -4.5150   15.4130    1.9800 Br  0  0  0  0  0  0  0  0  0  0  0  0
  1  2  1  0
  2  3  2  0
  2  4  1  0
  4  5  1  0
  5  6  1  0
  5  7  2  0
  6  8  2  0
  7  9  1  0
  8  9  1  0
  7 10  1  0
  9 11  1  1
 10 12  2  0
 12 13  1  0
 11 14  2  0
 12 14  1  0
 13 15  1  0
 15 16  1  0
 16 17  1  0
 17 18  2  0
 17 19  1  0
 19 20  2  0
 18 21  1  0
 20 22  1  0
 20 23  1  0
 21 23  2  0
 23 24  1  0
M  END
