mac-x0387-mac-x0344
     RDKit          3D

 25 27  0  0  0  0  0  0  0  0999 V2000
   -3.9320   15.2660    1.7960 N   0  0  0  0  0  0  0  0  0  0  0  0
   -2.7130   14.9780    1.1770 C   0  0  0  0  0  0  0  0  0  0  0  0
   -1.6820   14.7340    1.9950 N   0  0  0  0  0  0  0  0  0  0  0  0
   -2.6220   14.9620   -0.2150 C   0  0  0  0  0  0  0  0  0  0  0  0
   -1.3660   14.6980   -0.7900 C   0  0  0  0  0  0  0  0  0  0  0  0
   -0.4900   14.4850    1.4350 C   0  0  0  0  0  0  0  0  0  0  0  0
   -3.7350   15.2050   -1.0430 C   0  0  0  0  0  0  0  0  0  0  0  0
   -0.2820   14.4610    0.0790 C   0  0  0  0  0  0  0  0  0  0  0  0
   -1.2700   14.6830   -2.2010 C   0  0  0  0  0  0  0  0  0  0  0  0
   -3.6250   15.1840   -2.4270 C   0  0  0  0  0  0  0  0  0  0  0  0
   -2.3980   14.9240   -3.0040 C   0  0  0  0  0  0  0  0  0  0  0  0
    0.0110   14.4190   -2.9070 C   0  0  0  0  0  0  0  0  0  0  0  0
    0.9950   13.5220   -2.1590 C   0  0  0  0  0  0  0  0  0  0  0  0
    2.0750   13.4880   -3.0940 N   0  0  0  0  0  0  0  0  0  0  0  0
    1.8550   12.7600   -4.1140 C   0  0  0  0  0  0  0  0  0  0  0  0
    2.7230   12.6750   -5.1210 O   0  0  0  0  0  0  0  0  0  0  0  0
    0.6140   11.8920   -4.3660 C   0  0  0  0  0  0  0  0  0  0  0  0
    0.2170   11.2120   -3.4170 O   0  0  0  0  0  0  0  0  0  0  0  0
   -0.0200   11.8250   -5.5800 N   0  0  0  0  0  0  0  0  0  0  0  0
   -0.7340   10.7750   -6.1850 C   0  0  0  0  0  0  0  0  0  0  0  0
   -0.2940   10.0450   -7.2870 C   0  0  0  0  0  0  0  0  0  0  0  0
   -1.9740   10.4560   -5.6270 C   0  0  0  0  0  0  0  0  0  0  0  0
   -1.0850    9.0160   -7.8150 C   0  0  0  0  0  0  0  0  0  0  0  0
   -2.7660    9.4320   -6.1470 C   0  0  0  0  0  0  0  0  0  0  0  0
   -2.3190    8.7100   -7.2450 C   0  0  0  0  0  0  0  0  0  0  0  0
  1  2  1  0
  2  3  2  0
  2  4  1  0
  4  5  2  0
  3  6  1  0
  4  7  1  0
  5  8  1  0
  6  8  2  0
  5  9  1  0
  7 10  2  0
  9 11  2  0
 10 11  1  0
  9 12  1  0
 12 13  1  0
 13 14  1  0
 14 15  2  3
 15 16  1  0
 15 17  1  0
 17 18  2  0
 17 19  1  0
 19 20  1  0
 20 21  2  0
 20 22  1  0
 21 23  1  0
 22 24  2  0
 23 25  2  0
 24 25  1  0
M  END
