mac-x0321-diamond-x1012_0_A
     RDKit          3D

 21 22  0  0  0  0  0  0  0  0999 V2000
   -4.3790   15.6080    1.6390 Cl  0  0  0  0  0  0  0  0  0  0  0  0
   -4.3760   15.2910   -0.0380 C   0  0  0  0  0  0  0  0  0  0  0  0
   -3.2630   14.6830   -0.5720 C   0  0  0  0  0  0  0  0  0  0  0  0
   -5.4530   15.6250   -0.8500 C   0  0  0  0  0  0  0  0  0  0  0  0
   -3.2040   14.3940   -1.9310 C   0  0  0  0  0  0  0  0  0  0  0  0
   -5.4070   15.3490   -2.2080 C   0  0  0  0  0  0  0  0  0  0  0  0
   -1.9590   13.7100   -2.4310 C   0  0  2  0  0  0  0  0  0  0  0  0
   -4.2850   14.7360   -2.7540 C   0  0  0  0  0  0  0  0  0  0  0  0
   -1.2070   13.3550   -1.2780 O   0  0  0  0  0  0  0  0  0  0  0  0
   -1.0140   14.5640   -3.2430 C   0  0  2  0  0  0  0  0  0  0  0  0
   -1.4410   14.9000   -4.6600 C   0  0  0  0  0  0  0  0  0  0  0  0
    0.4560   14.1150   -3.1890 C   0  0  1  0  0  0  0  0  0  0  0  0
    0.7800   12.6860   -2.7920 C   0  0  0  0  0  0  0  0  0  0  0  0
    1.1930   14.5090   -4.4720 C   0  0  0  0  0  0  0  0  0  0  0  0
   -0.6630   16.0580   -5.1010 N   0  0  0  0  0  0  0  0  0  0  0  0
   -1.2870   17.2610   -4.8630 C   0  0  0  0  0  0  0  0  0  0  0  0
    0.0170   11.7020   -3.3030 O   0  0  0  0  0  0  0  0  0  0  0  0
    1.6810   12.4020   -2.0390 O   0  0  0  0  0  0  0  0  0  0  0  0
    0.7920   15.9010   -4.9610 C   0  0  0  0  0  0  0  0  0  0  0  0
   -0.4980   18.3450   -4.7200 N   0  0  0  0  0  0  0  0  0  0  0  0
   -2.4930   17.4050   -4.7660 O   0  0  0  0  0  0  0  0  0  0  0  0
  1  2  1  0
  2  3  2  0
  2  4  1  0
  3  5  1  0
  4  6  2  0
  5  7  1  0
  5  8  2  0
  6  8  1  0
  7  9  1  1
  7 10  1  0
 10 11  1  6
 10 12  1  0
 12 13  1  6
 12 14  1  0
 11 15  1  0
 15 16  1  0
 13 17  1  0
 13 18  2  0
 14 19  1  0
 15 19  1  0
 16 20  1  0
 16 21  2  0
M  END
