mac-x0193-mac-x0404
     RDKit          3D

 25 27  0  0  0  0  0  0  0  0999 V2000
    0.1730   10.7250   -3.1930 O   0  0  0  0  0  0  0  0  0  0  0  0
    0.8070   11.9260   -3.2130 C   0  0  0  0  0  0  0  0  0  0  0  0
    1.1110   12.5020   -2.1690 O   0  0  0  0  0  0  0  0  0  0  0  0
    1.1160   12.4850   -4.6310 C   0  0  1  0  0  0  0  0  0  0  0  0
    0.2190   11.9020   -5.6410 N   0  0  0  0  0  0  0  0  0  0  0  0
    1.0660   13.9200   -4.6220 O   0  0  0  0  0  0  0  0  0  0  0  0
    0.8650   11.4840   -6.7710 C   0  0  0  0  0  0  0  0  0  0  0  0
   -0.1800   14.4740   -4.8190 C   0  0  0  0  0  0  0  0  0  0  0  0
    2.0270   11.7900   -6.8830 O   0  0  0  0  0  0  0  0  0  0  0  0
    0.1360   10.7270   -7.6720 N   0  0  0  0  0  0  0  0  0  0  0  0
   -0.2550   15.8590   -5.0760 C   0  0  0  0  0  0  0  0  0  0  0  0
   -1.3280   13.6830   -4.7690 C   0  0  0  0  0  0  0  0  0  0  0  0
    0.7610   10.1850   -8.8900 C   0  0  0  0  0  0  0  0  0  0  0  0
   -1.5170   16.4510   -5.2920 C   0  0  0  0  0  0  0  0  0  0  0  0
   -2.5720   14.2680   -4.9800 C   0  0  0  0  0  0  0  0  0  0  0  0
    0.8820   16.6700   -5.1290 C   0  0  0  0  0  0  0  0  0  0  0  0
    1.3190    8.7910   -8.6430 C   0  0  0  0  0  0  0  0  0  0  0  0
   -0.1410   10.1720  -10.1250 C   0  0  0  0  0  0  0  0  0  0  0  0
   -2.6640   15.6450   -5.2400 C   0  0  0  0  0  0  0  0  0  0  0  0
   -1.6040   17.8230   -5.5590 C   0  0  0  0  0  0  0  0  0  0  0  0
    0.7840   18.0360   -5.3930 C   0  0  0  0  0  0  0  0  0  0  0  0
    1.9950    8.1650   -9.8690 C   0  0  0  0  0  0  0  0  0  0  0  0
    0.5530    9.6000  -11.3690 C   0  0  0  0  0  0  0  0  0  0  0  0
   -0.4650   18.6070   -5.6110 C   0  0  0  0  0  0  0  0  0  0  0  0
    1.1440    8.2190  -11.1330 C   0  0  0  0  0  0  0  0  0  0  0  0
  1  2  1  0
  2  3  2  0
  2  4  1  0
  4  5  1  6
  4  6  1  0
  5  7  1  0
  6  8  1  0
  7  9  2  0
  7 10  1  0
  8 11  1  0
  8 12  2  0
 10 13  1  0
 11 14  2  0
 12 15  1  0
 11 16  1  0
 13 17  1  0
 13 18  1  0
 14 19  1  0
 15 19  2  0
 14 20  1  0
 16 21  2  0
 17 22  1  0
 18 23  1  0
 20 24  2  0
 21 24  1  0
 22 25  1  0
 23 25  1  0
M  END
