mac-x0588-diamond-x0855_0_A
     RDKit          3D

 27 30  0  0  0  0  0  0  0  0999 V2000
   -4.2830   15.5250    1.1200 N   0  0  0  0  0  0  0  0  0  0  0  0
   -3.6520   14.7690    0.0360 C   0  0  2  0  0  0  0  0  0  0  0  0
   -2.1930   14.3600    0.3160 C   0  0  1  0  0  0  0  0  0  0  0  0
   -3.8880   15.5280   -1.1610 N   0  0  0  0  0  0  0  0  0  0  0  0
   -3.1870   14.9850   -2.3330 C   0  0  0  0  0  0  0  0  0  0  0  0
   -1.3070   14.2920   -0.9380 C   0  0  1  0  0  0  0  0  0  0  0  0
   -1.4300   15.1800    1.2800 N   0  0  0  0  0  0  0  0  0  0  0  0
   -1.7430   15.0130   -2.1200 N   0  0  0  0  0  0  0  0  0  0  0  0
   -0.0300   14.8200   -0.4720 N   0  0  0  0  0  0  0  0  0  0  0  0
   -0.0820   14.7680    0.9640 C   0  0  0  0  0  0  0  0  0  0  0  0
   -0.8250   14.8340   -3.2690 C   0  0  1  0  0  0  0  0  0  0  0  0
   -1.2120   13.5120   -3.9350 C   0  0  0  0  0  0  0  0  0  0  0  0
   -0.5900   15.8970   -4.3980 C   0  0  1  0  0  0  0  0  0  0  0  0
   -0.0740   12.6160   -4.4600 C   0  0  1  0  0  0  0  0  0  0  0  0
   -1.5720   16.9570   -4.4170 O   0  0  0  0  0  0  0  0  0  0  0  0
    0.7590   16.5770   -4.4930 C   0  0  0  0  0  0  0  0  0  0  0  0
    0.7760   12.0230   -3.3600 C   0  0  0  0  0  0  0  0  0  0  0  0
    0.4690   17.7440   -5.4020 C   0  0  0  0  0  0  0  0  0  0  0  0
   -0.9830   18.0740   -5.1010 C   0  0  0  0  0  0  0  0  0  0  0  0
   -0.7580   11.5550   -5.1370 N   0  0  0  0  0  0  0  0  0  0  0  0
    1.7290   12.8430   -2.8800 O   0  0  0  0  0  0  0  0  0  0  0  0
    0.6310   10.8930   -2.9090 O   0  0  0  0  0  0  0  0  0  0  0  0
   -0.3330   10.7300   -6.1370 C   0  0  0  0  0  0  0  0  0  0  0  0
   -2.0250   11.3180   -4.7430 N   0  0  0  0  0  0  0  0  0  0  0  0
   -1.4080    9.9130   -6.3810 C   0  0  0  0  0  0  0  0  0  0  0  0
   -2.4150   10.3140   -5.5050 C   0  0  0  0  0  0  0  0  0  0  0  0
   -1.5750    8.5280   -7.6090 Br  0  0  0  0  0  0  0  0  0  0  0  0
  2  1  1  1
  2  3  1  0
  2  4  1  0
  4  5  1  0
  3  6  1  0
  3  7  1  1
  5  8  1  0
  6  8  1  0
  6  9  1  1
  7 10  1  0
  9 10  1  0
  8 11  1  0
 11 12  1  6
 11 13  1  0
 14 12  1  1
 13 15  1  0
 13 16  1  1
 14 17  1  0
 16 18  1  0
 15 19  1  0
 18 19  1  0
 14 20  1  0
 17 21  1  0
 17 22  2  0
 20 23  1  0
 20 24  1  0
 23 25  2  0
 24 26  2  0
 25 26  1  0
 25 27  1  0
M  END
