mac-x0123-diamond-x0844_0_A
     RDKit          3D

 15 17  0  0  0  0  0  0  0  0999 V2000
   -3.6150   14.3020    1.5780 N   0  0  0  0  0  0  0  0  0  0  0  0
   -4.7250   14.2910    0.7580 C   0  0  0  0  0  0  0  0  0  0  0  0
   -6.0330   14.4070    1.1450 C   0  0  0  0  0  0  0  0  0  0  0  0
   -4.4580   14.1190   -0.7080 C   0  0  2  0  0  0  0  0  0  0  0  0
   -4.0400   15.8040   -1.4420 Br  0  0  0  0  0  0  0  0  0  0  0  0
   -5.5600   13.8670   -1.6170 C   0  0  0  0  0  0  0  0  0  0  0  0
   -7.0860   14.4110    0.1160 C   0  0  0  0  0  0  0  0  0  0  0  0
   -6.7710   14.5460    2.4490 C   0  0  0  0  0  0  0  0  0  0  0  0
   -3.2650   13.5570   -1.3060 N   0  0  0  0  0  0  0  0  0  0  0  0
   -6.9120   14.1830   -1.1430 N   0  0  0  0  0  0  0  0  0  0  0  0
   -8.4530   14.7190    0.6180 C   0  0  0  0  0  0  0  0  0  0  0  0
   -8.2420   14.8310    2.1230 C   0  0  0  0  0  0  0  0  0  0  0  0
   -5.0940   13.4190   -2.7380 N   0  0  0  0  0  0  0  0  0  0  0  0
   -3.7310   13.2540   -2.4850 C   0  0  0  0  0  0  0  0  0  0  0  0
   -7.8960   14.2260   -1.9190 O   0  0  0  0  0  0  0  0  0  0  0  0
  1  2  1  0
  2  3  2  0
  2  4  1  0
  4  5  1  6
  4  6  1  0
  3  7  1  0
  3  8  1  0
  4  9  1  0
  6 10  1  0
  7 10  2  0
  7 11  1  0
  8 12  1  0
 11 12  1  0
  6 13  2  0
  9 14  2  0
 13 14  1  0
 10 15  1  0
M  CHG  2  10   1  15  -1
M  END
