mac-x0396-mac-x0301
     RDKit          3D

 20 22  0  0  0  0  0  0  0  0999 V2000
   -3.9530   16.3100    1.6050 N   0  0  0  0  0  0  0  0  0  0  0  0
   -4.1510   15.0770    0.9070 C   0  0  1  0  0  0  0  0  0  0  0  0
   -5.5760   14.9050    0.4770 C   0  0  0  0  0  0  0  0  0  0  0  0
   -3.2060   14.9480   -0.1930 C   0  0  0  0  0  0  0  0  0  0  0  0
   -6.0020   15.0950   -0.8400 C   0  0  0  0  0  0  0  0  0  0  0  0
   -6.5370   14.5450    1.4090 C   0  0  0  0  0  0  0  0  0  0  0  0
   -1.8910   14.6920    0.0990 C   0  0  0  0  0  0  0  0  0  0  0  0
   -3.5910   15.0740   -1.5240 C   0  0  0  0  0  0  0  0  0  0  0  0
   -7.2820   14.9440   -1.2400 N   0  0  0  0  0  0  0  0  0  0  0  0
   -7.8540   14.3860    1.0260 C   0  0  0  0  0  0  0  0  0  0  0  0
   -0.9670   14.5400   -0.9100 C   0  0  0  0  0  0  0  0  0  0  0  0
   -2.6690   14.9300   -2.5450 C   0  0  0  0  0  0  0  0  0  0  0  0
   -1.3550   14.5630    1.3630 O   0  0  0  0  0  0  0  0  0  0  0  0
   -8.1740   14.5940   -0.2970 C   0  0  0  0  0  0  0  0  0  0  0  0
   -1.3370   14.6540   -2.2500 C   0  0  0  0  0  0  0  0  0  0  0  0
    0.2650   14.2790   -0.4110 O   0  0  0  0  0  0  0  0  0  0  0  0
    0.0160   14.3850    1.0150 C   0  0  0  0  0  0  0  0  0  0  0  0
   -0.4400   14.5090   -3.4130 C   0  0  0  0  0  0  0  0  0  0  0  0
    0.8740   14.5300   -3.1360 O   0  0  0  0  0  0  0  0  0  0  0  0
   -0.8800   14.3800   -4.5440 O   0  0  0  0  0  0  0  0  0  0  0  0
  2  1  1  6
  2  3  1  0
  2  4  1  0
  3  5  2  0
  3  6  1  0
  4  7  1  0
  4  8  2  0
  5  9  1  0
  6 10  2  0
  7 11  2  0
  8 12  1  0
  7 13  1  0
  9 14  2  0
 10 14  1  0
 11 15  1  0
 12 15  2  0
 11 16  1  0
 13 17  1  0
 16 17  1  0
 15 18  1  0
 18 19  1  0
 18 20  2  0
M  END
