mac-x0412-mac-x0204
     RDKit          3D

 23 25  0  0  0  0  0  0  0  0999 V2000
   -7.7490   14.5650   -0.6230 O   0  0  0  0  0  0  0  0  0  0  0  0
   -6.8330   14.8240    0.1480 C   0  0  0  0  0  0  0  0  0  0  0  0
   -7.0010   14.6040    1.5160 N   0  0  0  0  0  0  0  0  0  0  0  0
   -5.4860   15.4320   -0.3600 C   0  0  1  0  0  0  0  0  0  0  0  0
   -4.3810   15.2720    0.6700 C   0  0  0  0  0  0  0  0  0  0  0  0
   -5.9820   14.6380    2.3080 C   0  0  0  0  0  0  0  0  0  0  0  0
   -5.0330   15.0000   -1.7370 C   0  0  0  0  0  0  0  0  0  0  0  0
   -4.5910   14.8960    1.9370 C   0  0  0  0  0  0  0  0  0  0  0  0
   -3.0570   15.5600    0.2070 C   0  0  0  0  0  0  0  0  0  0  0  0
   -3.7250   15.0190   -2.0630 C   0  0  0  0  0  0  0  0  0  0  0  0
   -2.7300   15.4520   -1.0770 C   0  0  0  0  0  0  0  0  0  0  0  0
   -1.3230   15.8020   -1.4750 C   0  0  0  0  0  0  0  0  0  0  0  0
   -0.2860   14.6850   -1.3580 C   0  0  0  0  0  0  0  0  0  0  0  0
    0.2260   14.1780   -2.7060 C   0  0  0  0  0  0  0  0  0  0  0  0
    0.8120   12.9040   -2.5160 O   0  0  0  0  0  0  0  0  0  0  0  0
    1.2980   15.0350   -3.0610 O   0  0  0  0  0  0  0  0  0  0  0  0
   -0.8120   14.1660   -3.8180 C   0  0  0  0  0  0  0  0  0  0  0  0
   -1.4380   15.3260   -4.3110 C   0  0  0  0  0  0  0  0  0  0  0  0
   -1.1980   12.9670   -4.4060 C   0  0  0  0  0  0  0  0  0  0  0  0
   -2.3890   15.2270   -5.3220 C   0  0  0  0  0  0  0  0  0  0  0  0
   -2.1240   12.8400   -5.3910 N   0  0  0  0  0  0  0  0  0  0  0  0
   -2.9780   16.3690   -5.7820 O   0  0  0  0  0  0  0  0  0  0  0  0
   -2.7010   13.9760   -5.8240 C   0  0  0  0  0  0  0  0  0  0  0  0
  1  2  2  0
  2  3  1  0
  2  4  1  0
  4  5  1  0
  3  6  2  0
  4  7  1  6
  5  8  2  0
  6  8  1  0
  5  9  1  0
  7 10  2  0
  9 11  2  0
 10 11  1  0
 11 12  1  0
 12 13  1  0
 13 14  1  0
 14 15  1  0
 14 16  1  0
 14 17  1  0
 17 18  2  0
 17 19  1  0
 18 20  1  0
 19 21  2  0
 20 22  1  0
 20 23  2  0
 21 23  1  0
M  END
