mac-x0455-diamond-x0962_0_A
     RDKit          3D

 18 19  0  0  0  0  0  0  0  0999 V2000
   -2.0480   14.4610   -2.3700 C   0  0  0  0  0  0  0  0  0  0  0  0
   -0.9420   14.2990   -3.3560 C   0  0  1  0  0  0  0  0  0  0  0  0
   -0.9550   15.4770   -4.1780 O   0  0  0  0  0  0  0  0  0  0  0  0
   -2.8800   14.6410   -1.5100 C   0  0  0  0  0  0  0  0  0  0  0  0
    0.3890   14.2890   -2.5420 C   0  0  0  0  0  0  0  0  0  0  0  0
   -1.0060   13.0560   -4.2670 C   0  0  0  0  0  0  0  0  0  0  0  0
   -3.7920   14.8570   -0.4380 C   0  0  0  0  0  0  0  0  0  0  0  0
    1.2700   15.1180   -2.5020 O   0  0  0  0  0  0  0  0  0  0  0  0
    0.5470   13.1720   -1.7800 O   0  0  0  0  0  0  0  0  0  0  0  0
   -2.0680   12.1330   -4.2330 C   0  0  0  0  0  0  0  0  0  0  0  0
    0.0430   12.8080   -5.1870 C   0  0  0  0  0  0  0  0  0  0  0  0
   -3.4270   15.2620    0.8150 N   0  0  0  0  0  0  0  0  0  0  0  0
   -5.1570   14.7220   -0.3890 C   0  0  0  0  0  0  0  0  0  0  0  0
   -2.0780   11.0130   -5.0790 C   0  0  0  0  0  0  0  0  0  0  0  0
    0.0300   11.6910   -6.0300 C   0  0  0  0  0  0  0  0  0  0  0  0
   -4.5650   15.3530    1.5630 C   0  0  0  0  0  0  0  0  0  0  0  0
   -5.6280   15.0290    0.8600 N   0  0  0  0  0  0  0  0  0  0  0  0
   -1.0340   10.7950   -5.9720 C   0  0  0  0  0  0  0  0  0  0  0  0
  2  1  1  0
  2  3  1  6
  1  4  3  0
  2  5  1  0
  2  6  1  0
  4  7  1  0
  5  8  2  0
  5  9  1  0
  6 10  2  0
  6 11  1  0
  7 12  1  0
  7 13  2  0
 10 14  1  0
 11 15  2  0
 12 16  1  0
 13 17  1  0
 16 17  2  0
 14 18  2  0
 15 18  1  0
M  END
