mac-x0204-mac-x0402
     RDKit          3D

 21 23  0  0  0  0  0  0  0  0999 V2000
    0.4340   12.5910   -2.2580 O   0  0  0  0  0  0  0  0  0  0  0  0
    0.1520   13.8010   -2.7460 C   0  0  0  0  0  0  0  0  0  0  0  0
    0.7150   14.7880   -2.3050 O   0  0  0  0  0  0  0  0  0  0  0  0
   -0.8460   13.8250   -3.8370 C   0  0  0  0  0  0  0  0  0  0  0  0
   -1.8020   14.8190   -3.9920 C   0  0  0  0  0  0  0  0  0  0  0  0
   -0.8220   12.7930   -4.7630 C   0  0  0  0  0  0  0  0  0  0  0  0
   -1.9170   15.9160   -3.0000 C   0  0  0  0  0  0  0  0  0  0  0  0
   -2.6640   14.7630   -5.0910 C   0  0  0  0  0  0  0  0  0  0  0  0
   -1.6710   12.7040   -5.8200 N   0  0  0  0  0  0  0  0  0  0  0  0
   -3.5880   15.7510   -5.2930 O   0  0  0  0  0  0  0  0  0  0  0  0
   -2.5670   13.6980   -5.9650 C   0  0  0  0  0  0  0  0  0  0  0  0
   -3.0310   15.6000   -1.9950 C   0  0  0  0  0  0  0  0  0  0  0  0
   -4.3380   15.3960   -2.4520 C   0  0  0  0  0  0  0  0  0  0  0  0
   -2.7730   15.5100   -0.6120 C   0  0  0  0  0  0  0  0  0  0  0  0
   -3.8410   15.2310    0.2670 C   0  0  0  0  0  0  0  0  0  0  0  0
   -5.3880   15.1220   -1.5720 C   0  0  0  0  0  0  0  0  0  0  0  0
   -5.1430   15.0400   -0.1910 C   0  0  0  0  0  0  0  0  0  0  0  0
   -3.8380   15.0690    1.9830 S   0  0  0  0  0  0  0  0  0  0  0  0
   -5.5270   14.7820    1.9730 C   0  0  0  0  0  0  0  0  0  0  0  0
   -6.0900   14.7840    0.7910 N   0  0  0  0  0  0  0  0  0  0  0  0
   -6.2140   14.5710    3.1110 N   0  0  0  0  0  0  0  0  0  0  0  0
  1  2  1  0
  2  3  2  0
  2  4  1  0
  4  5  2  0
  4  6  1  0
  5  7  1  0
  5  8  1  0
  6  9  2  0
  8 10  1  0
  8 11  2  0
  9 11  1  0
  7 12  1  0
 12 13  2  0
 12 14  1  0
 14 15  2  0
 13 16  1  0
 15 17  1  0
 16 17  2  0
 15 18  1  0
 18 19  1  0
 17 20  1  0
 19 20  2  0
 19 21  1  0
M  END
