mac-x0319-mac-x0182
     RDKit          3D

 22 24  0  0  0  0  0  0  0  0999 V2000
    1.4750   12.0060   -4.1790 N   0  0  0  0  0  0  0  0  0  0  0  0
    1.1250   12.1560   -2.8780 C   0  0  0  0  0  0  0  0  0  0  0  0
    0.6500   11.3030   -2.1520 O   0  0  0  0  0  0  0  0  0  0  0  0
    0.6050   11.5960   -5.0270 C   0  0  0  0  0  0  0  0  0  0  0  0
    1.4220   13.5470   -2.5060 C   0  0  0  0  0  0  0  0  0  0  0  0
    0.7250   11.3310   -6.5070 C   0  0  0  0  0  0  0  0  0  0  0  0
   -1.0460   11.1960   -4.4920 S   0  0  0  0  0  0  0  0  0  0  0  0
    1.5270   11.8110   -7.2430 O   0  0  0  0  0  0  0  0  0  0  0  0
   -1.8520   12.4070   -4.8460 O   0  0  0  0  0  0  0  0  0  0  0  0
    0.6660   14.4870   -3.3860 C   0  0  0  0  0  0  0  0  0  0  0  0
   -1.2380   10.1570   -5.9140 C   0  0  0  0  0  0  0  0  0  0  0  0
   -0.2690   10.3220   -6.8880 C   0  0  0  0  0  0  0  0  0  0  0  0
    1.2830   15.6330   -3.8550 C   0  0  0  0  0  0  0  0  0  0  0  0
   -0.6600   14.2230   -3.7310 C   0  0  0  0  0  0  0  0  0  0  0  0
   -2.2620    9.2410   -6.0730 C   0  0  0  0  0  0  0  0  0  0  0  0
   -0.2790    9.5900   -8.0620 C   0  0  0  0  0  0  0  0  0  0  0  0
    0.5720   16.5080   -4.6490 C   0  0  0  0  0  0  0  0  0  0  0  0
   -1.3740   15.1070   -4.5350 C   0  0  0  0  0  0  0  0  0  0  0  0
   -2.2950    8.4890   -7.2480 C   0  0  0  0  0  0  0  0  0  0  0  0
   -1.3130    8.6620   -8.2360 C   0  0  0  0  0  0  0  0  0  0  0  0
    1.2090   17.6230   -5.0780 O   0  0  0  0  0  0  0  0  0  0  0  0
   -0.7490   16.2610   -4.9940 C   0  0  0  0  0  0  0  0  0  0  0  0
  1  2  1  0
  2  3  2  0
  1  4  2  3
  2  5  1  0
  4  6  1  0
  7  4  1  6
  6  8  2  0
  7  9  2  0
  5 10  1  0
  7 11  1  0
  6 12  1  0
 11 12  2  0
 10 13  2  0
 10 14  1  0
 11 15  1  0
 12 16  1  0
 13 17  1  0
 14 18  2  0
 15 19  2  0
 16 20  2  0
 19 20  1  0
 17 21  1  0
 17 22  2  0
 18 22  1  0
M  END
