mac-x0510-mac-x0179
     RDKit          3D

 29 32  0  0  0  0  0  0  0  0999 V2000
   -6.1710   14.9060    0.8970 O   0  0  0  0  0  0  0  0  0  0  0  0
   -5.0020   15.0160    0.5400 C   0  0  0  0  0  0  0  0  0  0  0  0
   -4.6920   15.2320   -0.7820 N   0  0  0  0  0  0  0  0  0  0  0  0
   -3.9640   14.9170    1.4220 N   0  0  0  0  0  0  0  0  0  0  0  0
   -2.6880   14.8300    0.9590 C   0  0  0  0  0  0  0  0  0  0  0  0
   -3.4460   15.1410   -1.3440 C   0  0  0  0  0  0  0  0  0  0  0  0
   -3.4170   15.2590   -2.6200 N   0  0  0  0  0  0  0  0  0  0  0  0
   -2.4130   14.9330   -0.3800 C   0  0  0  0  0  0  0  0  0  0  0  0
   -1.5830   14.6440    1.7150 N   0  0  0  0  0  0  0  0  0  0  0  0
   -2.2050   15.1850   -3.4170 C   0  0  0  0  0  0  0  0  0  0  0  0
   -1.0480   14.7990   -0.4380 N   0  0  0  0  0  0  0  0  0  0  0  0
   -0.6000   14.6320    0.8490 C   0  0  0  0  0  0  0  0  0  0  0  0
   -2.2580   13.9560   -4.3030 C   0  0  0  0  0  0  0  0  0  0  0  0
   -1.9820   12.6830   -3.5150 C   0  0  0  0  0  0  0  0  0  0  0  0
   -2.0720   11.5620   -4.4300 N   0  0  0  0  0  0  0  0  0  0  0  0
   -1.2050   11.2650   -5.3240 C   0  0  0  0  0  0  0  0  0  0  0  0
   -0.0350   11.9820   -5.5040 N   0  0  0  0  0  0  0  0  0  0  0  0
   -1.2090   10.2030   -6.3340 C   0  0  0  0  0  0  0  0  0  0  0  0
    0.6120   12.8530   -4.5320 C   0  0  0  0  0  0  0  0  0  0  0  0
    0.7040   11.4670   -6.5230 C   0  0  0  0  0  0  0  0  0  0  0  0
   -0.0440   10.3390   -7.0700 C   0  0  0  0  0  0  0  0  0  0  0  0
   -2.1090    9.1980   -6.6330 C   0  0  0  0  0  0  0  0  0  0  0  0
    0.9320   12.0780   -3.2630 C   0  0  0  0  0  0  0  0  0  0  0  0
    1.7870   11.8330   -6.9060 O   0  0  0  0  0  0  0  0  0  0  0  0
    0.2820    9.5050   -8.1240 C   0  0  0  0  0  0  0  0  0  0  0  0
   -1.8080    8.3360   -7.6940 C   0  0  0  0  0  0  0  0  0  0  0  0
    1.5960   12.8290   -2.3600 O   0  0  0  0  0  0  0  0  0  0  0  0
    0.6550   10.9200   -3.0000 O   0  0  0  0  0  0  0  0  0  0  0  0
   -0.6230    8.4890   -8.4350 C   0  0  0  0  0  0  0  0  0  0  0  0
  1  2  2  0
  2  3  1  0
  2  4  1  0
  4  5  1  0
  3  6  1  0
  6  7  2  3
  5  8  2  0
  6  8  1  0
  5  9  1  0
  7 10  1  0
  8 11  1  0
  9 12  2  0
 11 12  1  0
 10 13  1  0
 13 14  1  0
 14 15  1  0
 15 16  2  3
 16 17  1  0
 16 18  1  0
 17 19  1  0
 17 20  1  0
 18 21  2  0
 20 21  1  0
 18 22  1  0
 19 23  1  0
 20 24  2  0
 21 25  1  0
 22 26  2  0
 23 27  1  0
 23 28  2  0
 25 29  2  0
 26 29  1  0
M  END
