mac-x0348-mac-x0437
     RDKit          3D

 25 28  0  0  0  0  0  0  0  0999 V2000
    0.5080   18.7270   -6.0900 C   0  0  0  0  0  0  0  0  0  0  0  0
   -0.0100   17.5640   -5.4320 N   0  0  0  0  0  0  0  0  0  0  0  0
    0.6970   16.8250   -4.5370 C   0  0  0  0  0  0  0  0  0  0  0  0
   -1.2600   17.0310   -5.6050 C   0  0  0  0  0  0  0  0  0  0  0  0
   -0.0800   15.7780   -4.1150 C   0  0  0  0  0  0  0  0  0  0  0  0
   -1.3340   15.8980   -4.7990 C   0  0  0  0  0  0  0  0  0  0  0  0
   -2.3240   17.4420   -6.4050 C   0  0  0  0  0  0  0  0  0  0  0  0
    0.3200   14.7320   -3.1400 C   0  0  0  0  0  0  0  0  0  0  0  0
   -2.5280   15.1460   -4.8060 C   0  0  0  0  0  0  0  0  0  0  0  0
   -3.4910   16.6780   -6.4040 C   0  0  0  0  0  0  0  0  0  0  0  0
    0.7870   13.3720   -3.6770 C   0  0  1  0  0  0  0  0  0  0  0  0
   -3.5930   15.5460   -5.6150 C   0  0  0  0  0  0  0  0  0  0  0  0
    0.5840   12.3130   -2.6040 C   0  0  0  0  0  0  0  0  0  0  0  0
    0.4130   13.0390   -5.1480 C   0  0  0  0  0  0  0  0  0  0  0  0
    0.6390   12.4950   -1.3950 O   0  0  0  0  0  0  0  0  0  0  0  0
    0.3070   11.0870   -3.0810 O   0  0  0  0  0  0  0  0  0  0  0  0
   -0.4500   11.9130   -5.4620 N   0  0  0  0  0  0  0  0  0  0  0  0
   -1.6140   11.5840   -4.8230 C   0  0  0  0  0  0  0  0  0  0  0  0
   -0.2490   10.9850   -6.4570 C   0  0  0  0  0  0  0  0  0  0  0  0
   -2.1750   10.5080   -5.3340 N   0  0  0  0  0  0  0  0  0  0  0  0
   -1.3370   10.1230   -6.3480 C   0  0  0  0  0  0  0  0  0  0  0  0
    0.7470   10.8100   -7.4190 C   0  0  0  0  0  0  0  0  0  0  0  0
   -1.4480    9.0320   -7.2250 C   0  0  0  0  0  0  0  0  0  0  0  0
    0.6250    9.7170   -8.2870 C   0  0  0  0  0  0  0  0  0  0  0  0
   -0.4560    8.8410   -8.1920 C   0  0  0  0  0  0  0  0  0  0  0  0
  1  2  1  0
  2  3  1  0
  2  4  1  0
  3  5  2  0
  4  6  2  0
  5  6  1  0
  4  7  1  0
  5  8  1  0
  6  9  1  0
  7 10  2  0
 11  8  1  1
  9 12  2  0
 10 12  1  0
 11 13  1  0
 11 14  1  0
 13 15  2  0
 13 16  1  0
 14 17  1  0
 17 18  1  0
 17 19  1  0
 18 20  2  0
 19 21  2  0
 20 21  1  0
 19 22  1  0
 21 23  1  0
 22 24  2  0
 23 25  2  0
 24 25  1  0
M  END
