mac-x0365-mac-x0303
     RDKit          3D

 18 19  0  0  0  0  0  0  0  0999 V2000
   -0.9480   14.7770   -1.0690 O   0  0  0  0  0  0  0  0  0  0  0  0
   -1.8880   14.7590   -2.0320 C   0  0  0  0  0  0  0  0  0  0  0  0
   -1.6110   14.7480   -3.2240 O   0  0  0  0  0  0  0  0  0  0  0  0
   -3.2950   14.7570   -1.5290 C   0  0  0  0  0  0  0  0  0  0  0  0
   -4.3750   14.5860   -2.4940 C   0  0  0  0  0  0  0  0  0  0  0  0
   -3.5440   14.9030   -0.1900 C   0  0  0  0  0  0  0  0  0  0  0  0
   -5.6480   14.8640   -2.1790 C   0  0  0  0  0  0  0  0  0  0  0  0
   -4.9900   14.8650    0.1610 C   0  0  0  0  0  0  0  0  0  0  0  0
   -6.6080   14.6880   -3.0990 F   0  0  0  0  0  0  0  0  0  0  0  0
   -5.9950   15.3720   -0.8400 C   0  0  1  0  0  0  0  0  0  0  0  0
   -5.5960   14.4650    1.2340 N   0  0  0  0  0  0  0  0  0  0  0  0
   -5.8580   16.7370   -0.8880 O   0  0  0  0  0  0  0  0  0  0  0  0
   -6.9560   14.6390    0.9490 C   0  0  0  0  0  0  0  0  0  0  0  0
   -7.2860   15.0820   -0.2350 N   0  0  0  0  0  0  0  0  0  0  0  0
   -8.3210   14.3210    2.1010 S   0  0  0  0  0  0  0  0  0  0  0  0
   -8.1260   12.7380    2.6760 N   0  0  0  0  0  0  0  0  0  0  0  0
   -8.1680   15.2200    3.2210 O   0  0  0  0  0  0  0  0  0  0  0  0
   -9.5370   14.3100    1.3120 O   0  0  0  0  0  0  0  0  0  0  0  0
  1  2  1  0
  2  3  2  0
  2  4  1  0
  4  5  1  0
  4  6  2  0
  5  7  2  0
  6  8  1  0
  7  9  1  0
  7 10  1  0
  8 10  1  0
  8 11  2  0
 10 12  1  6
 11 13  1  0
 10 14  1  0
 13 14  2  0
 13 15  1  0
 15 16  1  0
 15 17  2  0
 15 18  2  0
M  END
