mac-x0588-mac-x0142
     RDKit          3D

 23 27  0  0  0  0  0  0  0  0999 V2000
   -4.3440   15.4240    1.2530 N   0  0  0  0  0  0  0  0  0  0  0  0
   -3.5370   14.8720    0.1750 C   0  0  2  0  0  0  0  0  0  0  0  0
   -2.0450   15.3330    0.2580 C   0  0  2  0  0  0  0  0  0  0  0  0
   -4.2590   15.2570   -1.0200 N   0  0  0  0  0  0  0  0  0  0  0  0
   -3.5190   15.0080   -2.2340 C   0  0  0  0  0  0  0  0  0  0  0  0
   -1.4070   15.5820   -1.1420 C   0  0  2  0  0  0  0  0  0  0  0  0
   -1.1560   14.3690    0.9260 N   0  0  0  0  0  0  0  0  0  0  0  0
   -2.3400   15.8670   -2.2450 N   0  0  0  0  0  0  0  0  0  0  0  0
   -0.4550   14.3830   -1.4160 C   0  0  1  0  0  0  0  0  0  0  0  0
    0.0290   14.2150    0.0670 C   0  0  0  0  0  0  0  0  0  0  0  0
   -1.6280   15.6890   -3.5310 C   0  0  0  0  0  0  0  0  0  0  0  0
   -1.2560   13.1410   -1.9850 C   0  0  0  0  0  0  0  0  0  0  0  0
    0.7060   14.7210   -2.4120 C   0  0  0  0  0  0  0  0  0  0  0  0
   -0.6450   16.8090   -3.8830 C   0  0  2  0  0  0  0  0  0  0  0  0
    0.8600   13.7080   -3.5560 C   0  0  0  0  0  0  0  0  0  0  0  0
   -1.5570   13.0790   -3.5150 C   0  0  0  0  0  0  0  0  0  0  0  0
   -1.4710   17.8600   -4.4540 O   0  0  0  0  0  0  0  0  0  0  0  0
    0.4480   16.4860   -4.9020 C   0  0  0  0  0  0  0  0  0  0  0  0
    2.1940   13.6020   -4.2520 C   0  0  0  0  0  0  0  0  0  0  0  0
    1.7840   12.5560   -3.2710 C   0  0  0  0  0  0  0  0  0  0  0  0
   -0.3550   13.3880   -4.3980 C   0  0  0  0  0  0  0  0  0  0  0  0
    0.6230   17.8260   -5.5630 C   0  0  0  0  0  0  0  0  0  0  0  0
   -0.8200   18.2930   -5.6540 C   0  0  0  0  0  0  0  0  0  0  0  0
  2  1  1  1
  2  3  1  0
  2  4  1  0
  4  5  1  0
  3  6  1  0
  3  7  1  6
  5  8  1  0
  6  8  1  6
  6  9  1  0
  7 10  1  0
  9 10  1  1
  8 11  1  0
  9 12  1  0
  9 13  1  0
 14 11  1  6
 15 13  1  0
 12 16  1  0
 14 17  1  0
 14 18  1  0
 15 19  1  0
 15 20  1  0
 19 20  1  0
 15 21  1  0
 16 21  1  0
 18 22  1  0
 17 23  1  0
 22 23  1  0
M  END
