mac-x0576-mac-x0347
     RDKit          3D

 21 23  0  0  0  0  0  0  0  0999 V2000
    0.0720   14.1600    2.0770 N   0  0  0  0  0  0  0  0  0  0  0  0
   -0.8220   14.1860    0.9830 C   0  0  1  0  0  0  0  0  0  0  0  0
   -2.1510   14.3210    1.4610 N   0  0  0  0  0  0  0  0  0  0  0  0
   -0.4850   15.2670    0.1590 N   0  0  0  0  0  0  0  0  0  0  0  0
   -1.2700   15.6860   -0.8500 C   0  0  0  0  0  0  0  0  0  0  0  0
   -2.9820   15.3190    0.8350 C   0  0  1  0  0  0  0  0  0  0  0  0
   -0.7530   16.1620   -1.8540 O   0  0  0  0  0  0  0  0  0  0  0  0
   -2.7590   15.5170   -0.6720 C   0  0  2  0  0  0  0  0  0  0  0  0
   -4.2970   14.8990    1.1810 N   0  0  0  0  0  0  0  0  0  0  0  0
   -5.1950   14.5540    0.2260 C   0  0  0  0  0  0  0  0  0  0  0  0
   -3.4000   14.4500   -1.6300 C   0  0  2  0  0  0  0  0  0  0  0  0
   -6.3760   14.8660    0.3180 O   0  0  0  0  0  0  0  0  0  0  0  0
   -4.6100   13.7510   -0.9240 C   0  0  0  0  0  0  0  0  0  0  0  0
   -2.2790   13.3690   -1.9400 C   0  0  0  0  0  0  0  0  0  0  0  0
   -3.9400   15.0430   -2.9570 C   0  0  0  0  0  0  0  0  0  0  0  0
   -1.3350   13.6080   -3.1560 C   0  0  2  0  0  0  0  0  0  0  0  0
   -3.1480   14.8980   -4.1940 N   0  0  0  0  0  0  0  0  0  0  0  0
    0.1570   13.5640   -2.8020 C   0  0  0  0  0  0  0  0  0  0  0  0
   -1.7010   14.8130   -3.9950 C   0  0  0  0  0  0  0  0  0  0  0  0
    0.9790   14.2330   -3.6400 O   0  0  0  0  0  0  0  0  0  0  0  0
    0.6090   12.9610   -1.8400 O   0  0  0  0  0  0  0  0  0  0  0  0
  2  1  1  1
  2  3  1  0
  2  4  1  0
  4  5  1  0
  6  3  1  6
  5  7  2  0
  8  5  1  1
  6  8  1  0
  6  9  1  0
  9 10  1  0
  8 11  1  0
 10 12  2  0
 10 13  1  0
 11 13  1  1
 11 14  1  0
 11 15  1  0
 14 16  1  0
 15 17  1  0
 16 18  1  1
 16 19  1  0
 17 19  1  0
 18 20  1  0
 18 21  2  0
M  END
