mac-x0306-diamond-x0895_0_A
     RDKit          3D

 17 19  0  0  0  0  0  0  0  0999 V2000
   -1.2830   14.4330    2.0490 O   0  0  0  0  0  0  0  0  0  0  0  0
   -2.2140   14.7990    1.3810 C   0  0  0  0  0  0  0  0  0  0  0  0
   -3.6380   15.1600    1.8330 C   0  0  0  0  0  0  0  0  0  0  0  0
   -2.2310   15.0190    0.0210 N   0  0  0  0  0  0  0  0  0  0  0  0
   -3.9490   16.1490    0.8180 N   0  0  0  0  0  0  0  0  0  0  0  0
   -3.4690   15.4860   -0.2590 C   0  0  0  0  0  0  0  0  0  0  0  0
   -4.0970   15.2670   -1.3590 C   0  0  0  0  0  0  0  0  0  0  0  0
   -5.4910   15.6560   -1.5970 C   0  0  0  0  0  0  0  0  0  0  0  0
   -3.5160   14.5060   -2.2670 N   0  0  0  0  0  0  0  0  0  0  0  0
   -3.8150   13.3330   -1.7020 C   0  0  0  0  0  0  0  0  0  0  0  0
   -6.1260   14.3290   -1.1680 C   0  0  2  0  0  0  0  0  0  0  0  0
   -7.0070   14.4750    0.0520 C   0  0  0  0  0  0  0  0  0  0  0  0
   -5.0570   13.1960   -1.1280 C   0  0  0  0  0  0  0  0  0  0  0  0
   -6.5640   14.4270    1.3540 N   0  0  0  0  0  0  0  0  0  0  0  0
   -8.3070   14.6600    0.0220 N   0  0  0  0  0  0  0  0  0  0  0  0
   -8.7120   14.7300    1.3250 C   0  0  0  0  0  0  0  0  0  0  0  0
   -7.6430   14.5890    2.1730 C   0  0  0  0  0  0  0  0  0  0  0  0
  1  2  2  0
  2  3  1  0
  2  4  1  0
  3  5  1  0
  4  6  1  0
  5  6  1  0
  6  7  2  3
  7  8  1  0
  7  9  1  0
  9 10  1  0
  8 11  1  0
 11 12  1  1
 10 13  2  0
 11 13  1  0
 12 14  1  0
 12 15  2  0
 15 16  1  0
 14 17  1  0
 16 17  2  0
M  END
