mac-x0213-mac-x0179
     RDKit          3D

 24 27  0  0  0  0  0  0  0  0999 V2000
   -0.8800   12.4280   -2.4070 O   0  0  0  0  0  0  0  0  0  0  0  0
    0.2880   12.8950   -3.0620 C   0  0  0  0  0  0  0  0  0  0  0  0
    1.1920   13.2470   -2.0230 O   0  0  0  0  0  0  0  0  0  0  0  0
    0.8610   11.8170   -3.9670 C   0  0  0  0  0  0  0  0  0  0  0  0
   -0.0380   14.0970   -3.9600 C   0  0  0  0  0  0  0  0  0  0  0  0
   -1.4950   14.5710   -3.8980 C   0  0  0  0  0  0  0  0  0  0  0  0
    0.8210   15.3510   -3.7360 C   0  0  0  0  0  0  0  0  0  0  0  0
    0.1160   11.6660   -5.2090 N   0  0  0  0  0  0  0  0  0  0  0  0
   -1.3390   15.8850   -4.5860 C   0  0  0  0  0  0  0  0  0  0  0  0
   -0.0130   16.3300   -4.4910 C   0  0  0  0  0  0  0  0  0  0  0  0
    0.7160   11.4050   -6.4070 C   0  0  0  0  0  0  0  0  0  0  0  0
   -1.1410   11.1390   -5.1940 C   0  0  0  0  0  0  0  0  0  0  0  0
    1.7140   11.9100   -6.8660 O   0  0  0  0  0  0  0  0  0  0  0  0
   -2.0610   11.3640   -4.4390 O   0  0  0  0  0  0  0  0  0  0  0  0
   -2.3000   16.6230   -5.2430 C   0  0  0  0  0  0  0  0  0  0  0  0
    0.3760   17.5310   -5.0530 C   0  0  0  0  0  0  0  0  0  0  0  0
   -0.0640   10.3490   -7.0470 C   0  0  0  0  0  0  0  0  0  0  0  0
   -1.2080   10.1850   -6.2950 C   0  0  0  0  0  0  0  0  0  0  0  0
   -1.9150   17.8370   -5.8140 C   0  0  0  0  0  0  0  0  0  0  0  0
   -0.5880   18.2830   -5.7180 C   0  0  0  0  0  0  0  0  0  0  0  0
    0.1840    9.5880   -8.1760 C   0  0  0  0  0  0  0  0  0  0  0  0
   -2.1780    9.2530   -6.6170 C   0  0  0  0  0  0  0  0  0  0  0  0
   -0.7840    8.6370   -8.5240 C   0  0  0  0  0  0  0  0  0  0  0  0
   -1.9540    8.4710   -7.7540 C   0  0  0  0  0  0  0  0  0  0  0  0
  2  1  1  0
  2  3  1  0
  2  4  1  0
  2  5  1  0
  5  6  1  0
  5  7  1  0
  4  8  1  0
  6  9  1  0
  7 10  1  0
  9 10  2  0
  8 11  1  0
  8 12  1  0
 11 13  2  0
 12 14  2  0
  9 15  1  0
 10 16  1  0
 11 17  1  0
 12 18  1  0
 17 18  2  0
 15 19  2  0
 16 20  2  0
 19 20  1  0
 17 21  1  0
 18 22  1  0
 21 23  2  0
 22 24  2  0
 23 24  1  0
M  END
