mac-x0451-mac-x0380
     RDKit          3D

 13 14  0  0  0  0  0  0  0  0999 V2000
   -6.3890   14.5970    3.2360 N   0  0  0  0  0  0  0  0  0  0  0  0
   -5.6340   14.6810    2.1270 C   0  0  0  0  0  0  0  0  0  0  0  0
   -6.1380   14.8410    0.9300 N   0  0  0  0  0  0  0  0  0  0  0  0
   -3.9270   14.5810    2.2120 S   0  0  0  0  0  0  0  0  0  0  0  0
   -5.1270   14.8910   -0.0100 C   0  0  0  0  0  0  0  0  0  0  0  0
   -3.8380   14.7580    0.5050 C   0  0  0  0  0  0  0  0  0  0  0  0
   -5.3010   15.0570   -1.3990 C   0  0  0  0  0  0  0  0  0  0  0  0
   -2.7090   14.7760   -0.3110 C   0  0  0  0  0  0  0  0  0  0  0  0
   -4.1820   15.0770   -2.2330 C   0  0  0  0  0  0  0  0  0  0  0  0
   -2.9160   14.9340   -1.6780 C   0  0  0  0  0  0  0  0  0  0  0  0
   -1.8130   14.9490   -2.5250 O   0  0  0  0  0  0  0  0  0  0  0  0
   -2.1690   14.7600   -3.8340 C   0  0  0  0  0  0  0  0  0  0  0  0
   -3.0570   15.3030   -4.4660 O   0  0  0  0  0  0  0  0  0  0  0  0
  1  2  1  0
  2  3  2  0
  2  4  1  0
  3  5  1  0
  4  6  1  0
  5  6  2  0
  5  7  1  0
  6  8  1  0
  7  9  2  0
  8 10  2  0
  9 10  1  0
 10 11  1  0
 11 12  1  0
 12 13  2  0
M  END
