mac-x0326-mac-x0380
     RDKit          3D

 24 26  0  0  0  0  0  0  0  0999 V2000
   -6.3150   15.8100   -1.5130 Cl  0  0  0  0  0  0  0  0  0  0  0  0
   -4.7890   14.8740   -1.4230 C   0  0  1  0  0  0  0  0  0  0  0  0
   -3.6850   15.3760   -2.3820 C   0  0  2  0  0  0  0  0  0  0  0  0
   -4.4290   14.4510    0.0530 C   0  0  1  0  0  0  0  0  0  0  0  0
   -3.7030   14.7410   -3.7200 C   0  0  0  0  0  0  0  0  0  0  0  0
   -2.3280   15.0090   -2.0330 C   0  0  0  0  0  0  0  0  0  0  0  0
   -2.8600   14.5520    0.3950 C   0  0  0  0  0  0  0  0  0  0  0  0
   -5.2580   15.0280    1.1650 N   0  0  0  0  0  0  0  0  0  0  0  0
   -4.8660   13.0510   -0.2070 C   0  0  0  0  0  0  0  0  0  0  0  0
   -2.7610   13.7820   -3.8010 O   0  0  0  0  0  0  0  0  0  0  0  0
   -4.4000   15.0100   -4.6640 O   0  0  0  0  0  0  0  0  0  0  0  0
   -1.3760   15.0410   -3.0290 N   0  0  0  0  0  0  0  0  0  0  0  0
   -1.9340   14.6400   -0.7980 C   0  0  0  0  0  0  0  0  0  0  0  0
   -6.5260   14.6490    1.6250 C   0  0  0  0  0  0  0  0  0  0  0  0
   -6.4390   12.4040    0.1650 S   0  0  0  0  0  0  0  0  0  0  0  0
   -7.0910   15.2190    2.5540 O   0  0  0  0  0  0  0  0  0  0  0  0
   -0.2170   14.6960   -2.5570 C   0  0  0  0  0  0  0  0  0  0  0  0
   -0.2430   14.3150   -0.8570 S   0  0  0  0  0  0  0  0  0  0  0  0
   -7.3090   13.5090    1.1330 C   0  0  0  0  0  0  0  0  0  0  0  0
    1.0140   14.6410   -3.4240 C   0  0  0  0  0  0  0  0  0  0  0  0
    1.0420   13.3310   -4.2060 C   0  0  0  0  0  0  0  0  0  0  0  0
    1.1170   12.2290   -3.2020 C   0  0  0  0  0  0  0  0  0  0  0  0
    0.3240   11.1670   -3.4800 O   0  0  0  0  0  0  0  0  0  0  0  0
    1.8170   12.2830   -2.2150 O   0  0  0  0  0  0  0  0  0  0  0  0
  2  1  1  1
  2  3  1  0
  2  4  1  0
  3  5  1  6
  3  6  1  0
  4  7  1  1
  4  8  1  0
  4  9  1  0
  5 10  1  0
  5 11  2  0
  6 12  1  0
  6 13  2  0
  7 13  1  0
  8 14  1  0
  9 15  2  0
 14 16  2  0
 12 17  2  0
 13 18  1  0
 17 18  1  0
 14 19  1  0
 15 19  2  0
 17 20  1  0
 20 21  1  0
 21 22  1  0
 22 23  1  0
 22 24  2  0
M  END
