mac-x0365-diamond-x0711_0_A
     RDKit          3D

 15 15  0  0  0  0  0  0  0  0999 V2000
   -0.6270   14.9660   -1.1310 O   0  0  0  0  0  0  0  0  0  0  0  0
   -1.5130   15.3230   -2.1850 C   0  0  1  0  0  0  0  0  0  0  0  0
   -1.1900   14.4710   -3.4260 C   0  0  0  0  0  0  0  0  0  0  0  0
   -2.9330   15.2620   -1.6530 C   0  0  0  0  0  0  0  0  0  0  0  0
   -1.9570   13.2000   -3.6930 C   0  0  0  0  0  0  0  0  0  0  0  0
   -0.2810   14.8240   -4.1890 O   0  0  0  0  0  0  0  0  0  0  0  0
   -4.0300   15.1810   -2.5190 C   0  0  0  0  0  0  0  0  0  0  0  0
   -3.1750   15.2860   -0.2650 C   0  0  0  0  0  0  0  0  0  0  0  0
   -5.3230   15.1260   -2.0050 C   0  0  0  0  0  0  0  0  0  0  0  0
   -4.4780   15.2310    0.2350 C   0  0  0  0  0  0  0  0  0  0  0  0
   -6.3510   15.0480   -2.8580 F   0  0  0  0  0  0  0  0  0  0  0  0
   -5.5650   15.1490   -0.6360 C   0  0  0  0  0  0  0  0  0  0  0  0
   -6.8580   15.0920   -0.1190 N   0  0  0  0  0  0  0  0  0  0  0  0
   -7.0570   14.3120    0.8750 C   0  0  0  0  0  0  0  0  0  0  0  0
   -6.2000   13.4870    1.5270 N   0  0  0  0  0  0  0  0  0  0  0  0
  2  1  1  1
  2  3  1  0
  2  4  1  0
  3  5  1  0
  3  6  2  0
  4  7  2  0
  4  8  1  0
  7  9  1  0
  8 10  2  0
  9 11  1  0
  9 12  2  0
 10 12  1  0
 12 13  1  0
 13 14  2  3
 14 15  1  0
M  END
