mac-x0436-mac-x0163
     RDKit          3D

 32 36  0  0  0  0  0  0  0  0999 V2000
    0.7730   11.2010   -3.3730 O   0  0  0  0  0  0  0  0  0  0  0  0
    1.5470   12.3080   -3.3260 C   0  0  0  0  0  0  0  0  0  0  0  0
    1.9620   12.7220   -2.2540 O   0  0  0  0  0  0  0  0  0  0  0  0
    1.8060   12.9410   -4.6940 C   0  0  0  0  0  0  0  0  0  0  0  0
    0.5500   13.1030   -5.5750 C   0  0  0  0  0  0  0  0  0  0  0  0
   -0.2360   11.8270   -5.7710 C   0  0  0  0  0  0  0  0  0  0  0  0
   -1.1710   11.3250   -4.7020 C   0  0  0  0  0  0  0  0  0  0  0  0
   -0.0260   11.1880   -6.8790 N   0  0  0  0  0  0  0  0  0  0  0  0
   -1.8670   10.1590   -4.9610 N   0  0  0  0  0  0  0  0  0  0  0  0
   -0.6970    9.9800   -7.0840 C   0  0  0  0  0  0  0  0  0  0  0  0
   -1.3080   11.9460   -3.5400 C   0  0  0  0  0  0  0  0  0  0  0  0
   -1.6150    9.4580   -6.1500 C   0  0  0  0  0  0  0  0  0  0  0  0
   -0.4340    9.2830   -8.2570 C   0  0  0  0  0  0  0  0  0  0  0  0
   -0.8380   13.1800   -2.7860 C   0  0  2  0  0  0  0  0  0  0  0  0
   -2.0990   11.5490   -2.3150 C   0  0  0  0  0  0  0  0  0  0  0  0
   -1.0770    8.0760   -8.5160 C   0  0  0  0  0  0  0  0  0  0  0  0
   -2.2580    8.2480   -6.4160 C   0  0  0  0  0  0  0  0  0  0  0  0
    0.4170   13.9180   -3.2350 C   0  0  0  0  0  0  0  0  0  0  0  0
   -0.7990   12.0960   -1.6860 C   0  0  0  0  0  0  0  0  0  0  0  0
   -1.7840   14.1290   -2.3360 N   0  0  0  0  0  0  0  0  0  0  0  0
   -1.9900    7.5590   -7.5990 C   0  0  0  0  0  0  0  0  0  0  0  0
   -1.8340   14.4740   -0.9750 C   0  0  0  0  0  0  0  0  0  0  0  0
   -2.4160   14.9520   -3.3640 C   0  0  0  0  0  0  0  0  0  0  0  0
    0.0590   15.1600   -4.0690 C   0  0  0  0  0  0  0  0  0  0  0  0
   -2.9600   14.9080   -0.3180 C   0  0  0  0  0  0  0  0  0  0  0  0
   -0.6630   14.3330   -0.3080 N   0  0  0  0  0  0  0  0  0  0  0  0
   -1.4190   15.2270   -4.5040 C   0  0  0  0  0  0  0  0  0  0  0  0
   -4.4860   15.1290   -1.0970 Cl  0  0  0  0  0  0  0  0  0  0  0  0
   -2.8320   15.1710    1.0460 C   0  0  0  0  0  0  0  0  0  0  0  0
   -0.6340   14.6110    0.9980 C   0  0  0  0  0  0  0  0  0  0  0  0
   -3.9270   15.6170    1.8100 N   0  0  0  0  0  0  0  0  0  0  0  0
   -1.6760   15.0210    1.7100 N   0  0  0  0  0  0  0  0  0  0  0  0
  1  2  1  0
  2  3  2  0
  2  4  1  0
  4  5  1  0
  5  6  1  0
  6  7  1  0
  6  8  2  0
  7  9  1  0
  8 10  1  0
  7 11  2  3
  9 12  1  0
 10 12  2  0
 10 13  1  0
 14 11  1  0
 11 15  1  0
 13 16  2  0
 12 17  1  0
 14 18  1  6
 14 19  1  0
 15 19  1  0
 14 20  1  0
 16 21  1  0
 17 21  2  0
 20 22  1  0
 20 23  1  0
 18 24  1  0
 22 25  2  0
 22 26  1  0
 23 27  1  0
 24 27  1  0
 25 28  1  0
 25 29  1  0
 26 30  2  0
 29 31  1  0
 29 32  2  0
 30 32  1  0
M  END
