mac-x1493-diamond-x0628_0_A
     RDKit          3D

 26 28  0  0  0  0  0  0  0  0999 V2000
   -1.3000   15.1240   -1.3770 O   0  0  0  0  0  0  0  0  0  0  0  0
   -2.1970   14.7620   -2.2950 C   0  0  0  0  0  0  0  0  0  0  0  0
   -1.7110   14.4960   -3.4460 N   0  0  0  0  0  0  0  0  0  0  0  0
   -3.5360   14.7390   -1.6930 C   0  0  0  0  0  0  0  0  0  0  0  0
   -2.5320   14.0050   -4.5430 C   0  0  0  0  0  0  0  0  0  0  0  0
   -3.6800   14.9190   -0.3270 C   0  0  0  0  0  0  0  0  0  0  0  0
   -4.6810   14.5320   -2.4460 C   0  0  0  0  0  0  0  0  0  0  0  0
   -2.6150   12.4840   -4.3300 C   0  0  0  0  0  0  0  0  0  0  0  0
   -4.9540   14.8640    0.2380 C   0  0  0  0  0  0  0  0  0  0  0  0
   -5.9330   14.4790   -1.9190 N   0  0  0  0  0  0  0  0  0  0  0  0
   -6.0650   14.6330   -0.5920 C   0  0  0  0  0  0  0  0  0  0  0  0
   -5.1310   15.0260    1.6040 C   0  0  0  0  0  0  0  0  0  0  0  0
   -1.6970   11.7030   -5.2220 C   0  0  0  0  0  0  0  0  0  0  0  0
   -7.3270   14.5590   -0.0110 C   0  0  0  0  0  0  0  0  0  0  0  0
   -6.4050   14.9400    2.1720 C   0  0  0  0  0  0  0  0  0  0  0  0
   -1.9960   10.5480   -5.7830 N   0  0  0  0  0  0  0  0  0  0  0  0
   -0.4120   12.0470   -5.6000 N   0  0  0  0  0  0  0  0  0  0  0  0
    0.3730   13.2170   -5.2470 C   0  0  0  0  0  0  0  0  0  0  0  0
   -7.5090   14.7050    1.3680 C   0  0  0  0  0  0  0  0  0  0  0  0
   -0.8770   10.2200   -6.4920 C   0  0  0  0  0  0  0  0  0  0  0  0
    0.1160   11.1080   -6.4120 N   0  0  0  0  0  0  0  0  0  0  0  0
   -0.7720    8.9820   -7.2850 C   0  0  0  0  0  0  0  0  0  0  0  0
    1.5950   12.9360   -4.3750 C   0  0  0  0  0  0  0  0  0  0  0  0
    1.2100   12.2610   -3.0830 C   0  0  0  0  0  0  0  0  0  0  0  0
    0.5450   11.2390   -2.9730 O   0  0  0  0  0  0  0  0  0  0  0  0
    1.6870   12.9270   -2.0110 O   0  0  0  0  0  0  0  0  0  0  0  0
  1  2  1  0
  2  3  2  3
  2  4  1  0
  3  5  1  0
  4  6  2  0
  4  7  1  0
  5  8  1  0
  6  9  1  0
  7 10  2  0
  9 11  2  0
 10 11  1  0
  9 12  1  0
  8 13  1  0
 11 14  1  0
 12 15  2  0
 13 16  2  0
 13 17  1  0
 17 18  1  0
 14 19  2  0
 15 19  1  0
 16 20  1  0
 17 21  1  0
 20 21  2  0
 20 22  1  0
 18 23  1  0
 23 24  1  0
 24 25  2  0
 24 26  1  0
M  END
