mac-x0123-mac-x0379
     RDKit          3D

 17 19  0  0  0  0  0  0  0  0999 V2000
   -4.0570   14.9540    1.6010 N   0  0  0  0  0  0  0  0  0  0  0  0
   -4.6320   13.8020    0.9070 C   0  0  1  0  0  0  0  0  0  0  0  0
   -6.1740   13.7470    0.9810 C   0  0  2  0  0  0  0  0  0  0  0  0
   -4.0970   13.7930   -0.4810 N   0  0  0  0  0  0  0  0  0  0  0  0
   -5.0370   13.5970   -1.5840 C   0  0  1  0  0  0  0  0  0  0  0  0
   -6.7860   14.5690   -0.1570 C   0  0  1  0  0  0  0  0  0  0  0  0
   -6.9860   14.2950    2.1410 C   0  0  0  0  0  0  0  0  0  0  0  0
   -3.5020   15.0940   -0.7900 N   0  0  0  0  0  0  0  0  0  0  0  0
   -4.5730   15.9580   -0.2990 C   0  0  0  0  0  0  0  0  0  0  0  0
   -6.4090   14.0670   -1.4680 N   0  0  0  0  0  0  0  0  0  0  0  0
   -8.2750   14.5730    0.2180 C   0  0  0  0  0  0  0  0  0  0  0  0
   -8.1630   14.7420    1.7060 C   0  0  0  0  0  0  0  0  0  0  0  0
   -4.4030   14.1450   -2.7710 N   0  0  0  0  0  0  0  0  0  0  0  0
   -3.3460   15.0710   -2.2750 C   0  0  2  0  0  0  0  0  0  0  0  0
   -1.9170   14.7980   -2.9020 C   0  0  0  0  0  0  0  0  0  0  0  0
   -1.6950   14.5070   -4.0760 O   0  0  0  0  0  0  0  0  0  0  0  0
   -0.8470   14.9230   -2.0730 O   0  0  0  0  0  0  0  0  0  0  0  0
  2  1  1  6
  2  3  1  0
  2  4  1  0
  4  5  1  0
  3  6  1  0
  3  7  1  1
  4  8  1  0
  8  9  1  0
  5 10  1  1
  6 10  1  0
  6 11  1  6
  7 12  2  0
 11 12  1  0
  5 13  1  0
  8 14  1  0
 13 14  1  0
 14 15  1  1
 15 16  2  0
 15 17  1  0
M  END
