mac-x0228-mac-x0116
     RDKit          3D

 23 26  0  0  0  0  0  0  0  0999 V2000
   -0.8250   14.5600   -2.1000 O   0  0  0  0  0  0  0  0  0  0  0  0
   -1.9430   14.5260   -2.8400 C   0  0  0  0  0  0  0  0  0  0  0  0
   -1.8770   14.7490   -4.0440 O   0  0  0  0  0  0  0  0  0  0  0  0
   -3.2300   14.1960   -2.0830 C   0  0  1  0  0  0  0  0  0  0  0  0
   -3.2080   14.6250   -0.5550 C   0  0  2  0  0  0  0  0  0  0  0  0
   -4.4510   14.6850   -2.8600 C   0  0  0  0  0  0  0  0  0  0  0  0
   -4.7300   14.7780    0.0030 C   0  0  1  0  0  0  0  0  0  0  0  0
   -5.5060   15.3190   -2.3380 C   0  0  0  0  0  0  0  0  0  0  0  0
   -2.2900   15.8500   -0.5180 C   0  0  0  0  0  0  0  0  0  0  0  0
   -2.4160   13.7640    0.4130 N   0  0  0  0  0  0  0  0  0  0  0  0
   -4.7290   14.9500    1.4740 N   0  0  0  0  0  0  0  0  0  0  0  0
   -5.6330   15.6490   -0.9010 C   0  0  1  0  0  0  0  0  0  0  0  0
   -5.5960   13.5410   -0.0990 C   0  0  0  0  0  0  0  0  0  0  0  0
   -0.9360   15.3240   -0.3160 N   0  0  0  0  0  0  0  0  0  0  0  0
   -1.1430   14.3850    0.7500 C   0  0  0  0  0  0  0  0  0  0  0  0
   -5.9750   14.6510    2.1670 C   0  0  0  0  0  0  0  0  0  0  0  0
   -6.9970   15.4020   -0.5320 O   0  0  0  0  0  0  0  0  0  0  0  0
   -7.0470   14.0430   -0.1250 C   0  0  0  0  0  0  0  0  0  0  0  0
   -6.4150   13.2190    2.0710 C   0  0  0  0  0  0  0  0  0  0  0  0
   -6.3400   12.5950    0.8470 O   0  0  0  0  0  0  0  0  0  0  0  0
   -6.9210   12.3300    2.9920 C   0  0  0  0  0  0  0  0  0  0  0  0
   -7.1710   11.1290    2.3080 C   0  0  0  0  0  0  0  0  0  0  0  0
   -6.8030   11.3380    1.0060 C   0  0  0  0  0  0  0  0  0  0  0  0
  1  2  1  0
  2  3  2  0
  4  2  1  6
  4  5  1  0
  4  6  1  0
  5  7  1  0
  6  8  2  0
  5  9  1  6
  5 10  1  0
  7 11  1  1
  7 12  1  0
 12  8  1  6
  7 13  1  0
  9 14  1  0
 10 15  1  0
 14 15  1  0
 11 16  1  0
 12 17  1  0
 13 18  1  0
 17 18  1  0
 16 19  1  0
 19 20  1  0
 19 21  2  0
 21 22  1  0
 20 23  1  0
 22 23  2  0
M  END
