mac-x0354-diamond-x1018_0_A
     RDKit          3D

 28 31  0  0  0  0  0  0  0  0999 V2000
    0.6920   11.0160   -8.3230 C   0  0  0  0  0  0  0  0  0  0  0  0
    0.9490   11.5140   -6.9840 N   0  0  0  0  0  0  0  0  0  0  0  0
    1.9260   12.3950   -6.7520 N   0  0  0  0  0  0  0  0  0  0  0  0
    0.2750   11.1740   -5.8590 C   0  0  0  0  0  0  0  0  0  0  0  0
    1.8840   12.6290   -5.4620 C   0  0  0  0  0  0  0  0  0  0  0  0
    0.8720   11.8970   -4.8250 C   0  0  0  0  0  0  0  0  0  0  0  0
   -0.8170   10.2230   -5.9060 C   0  0  0  0  0  0  0  0  0  0  0  0
    0.5700   11.9260   -3.4280 C   0  0  0  0  0  0  0  0  0  0  0  0
   -0.6060    8.9680   -6.4910 C   0  0  0  0  0  0  0  0  0  0  0  0
   -2.0670   10.5400   -5.3810 C   0  0  0  0  0  0  0  0  0  0  0  0
    0.6900   13.0590   -2.8580 N   0  0  0  0  0  0  0  0  0  0  0  0
    0.1730   10.7740   -2.8180 O   0  0  0  0  0  0  0  0  0  0  0  0
   -1.6380    8.0400   -6.5470 C   0  0  0  0  0  0  0  0  0  0  0  0
   -3.1020    9.6090   -5.4380 C   0  0  0  0  0  0  0  0  0  0  0  0
    0.3720   13.2360   -1.4670 C   0  0  0  0  0  0  0  0  0  0  0  0
   -2.8870    8.3600   -6.0210 C   0  0  0  0  0  0  0  0  0  0  0  0
   -1.1320   13.4250   -1.3260 C   0  0  0  0  0  0  0  0  0  0  0  0
   -1.6130   14.4080   -0.2550 C   0  0  0  0  0  0  0  0  0  0  0  0
   -2.9350   14.9800   -0.5610 N   0  0  0  0  0  0  0  0  0  0  0  0
   -3.2040   14.9700   -2.0000 N   0  0  0  0  0  0  0  0  0  0  0  0
   -4.0250   14.1600   -0.0460 C   0  0  2  0  0  0  0  0  0  0  0  0
   -4.6250   15.0710   -2.1310 N   0  0  0  0  0  0  0  0  0  0  0  0
   -5.1030   14.4170   -1.0040 N   0  0  0  0  0  0  0  0  0  0  0  0
   -4.4500   14.4950    1.3410 C   0  0  0  0  0  0  0  0  0  0  0  0
   -6.4330   14.4890   -0.7120 N   0  0  0  0  0  0  0  0  0  0  0  0
   -5.7320   14.7120    1.6500 C   0  0  0  0  0  0  0  0  0  0  0  0
   -6.7230   14.6150    0.5460 C   0  0  0  0  0  0  0  0  0  0  0  0
   -8.4110   14.6810    0.9270 Cl  0  0  0  0  0  0  0  0  0  0  0  0
  1  2  1  0
  2  3  1  0
  2  4  1  0
  3  5  2  0
  4  6  2  0
  5  6  1  0
  4  7  1  0
  6  8  1  0
  7  9  2  0
  7 10  1  0
  8 11  2  3
  8 12  1  0
  9 13  1  0
 10 14  2  0
 11 15  1  0
 13 16  2  0
 14 16  1  0
 15 17  1  0
 17 18  1  0
 18 19  1  0
 19 20  1  0
 19 21  1  0
 20 22  1  0
 21 23  1  0
 22 23  1  0
 21 24  1  1
 23 25  1  0
 24 26  2  0
 25 27  2  0
 26 27  1  0
 27 28  1  0
M  END
