mac-x0321-diamond-x0465_0_A
     RDKit          3D

 24 25  0  0  0  0  0  0  0  0999 V2000
   -4.3690   15.5090    1.6460 Cl  0  0  0  0  0  0  0  0  0  0  0  0
   -4.3500   15.3400   -0.0530 C   0  0  0  0  0  0  0  0  0  0  0  0
   -3.1410   15.0840   -0.6680 C   0  0  0  0  0  0  0  0  0  0  0  0
   -5.5240   15.4620   -0.7910 C   0  0  0  0  0  0  0  0  0  0  0  0
   -3.0860   14.9510   -2.0520 C   0  0  0  0  0  0  0  0  0  0  0  0
   -5.4780   15.3260   -2.1740 C   0  0  0  0  0  0  0  0  0  0  0  0
   -1.8000   14.6860   -2.7470 C   0  0  0  0  0  0  0  0  0  0  0  0
   -4.2600   15.0730   -2.8090 C   0  0  0  0  0  0  0  0  0  0  0  0
   -0.7750   14.8940   -1.8790 O   0  0  0  0  0  0  0  0  0  0  0  0
   -1.7360   14.3530   -3.9170 O   0  0  0  0  0  0  0  0  0  0  0  0
    0.4730   14.2440   -2.1580 C   0  0  0  0  0  0  0  0  0  0  0  0
    0.4880   12.7950   -2.0800 N   0  0  0  0  0  0  0  0  0  0  0  0
    0.5710   12.1110   -3.1530 C   0  0  0  0  0  0  0  0  0  0  0  0
    0.6880   12.5770   -4.6100 C   0  0  1  0  0  0  0  0  0  0  0  0
    0.5470   10.7880   -2.9390 O   0  0  0  0  0  0  0  0  0  0  0  0
    2.0370   13.2550   -4.8220 C   0  0  0  0  0  0  0  0  0  0  0  0
    0.6280   11.4100   -5.4300 O   0  0  0  0  0  0  0  0  0  0  0  0
   -0.5190   10.7180   -5.6880 C   0  0  0  0  0  0  0  0  0  0  0  0
   -0.6720    9.6800   -6.6060 C   0  0  0  0  0  0  0  0  0  0  0  0
   -1.6340   11.1120   -4.9380 C   0  0  0  0  0  0  0  0  0  0  0  0
    0.3470    9.2490   -7.3630 F   0  0  0  0  0  0  0  0  0  0  0  0
   -1.8990    9.0450   -6.7760 C   0  0  0  0  0  0  0  0  0  0  0  0
   -2.8690   10.4800   -5.1040 C   0  0  0  0  0  0  0  0  0  0  0  0
   -3.0000    9.4420   -6.0260 C   0  0  0  0  0  0  0  0  0  0  0  0
  1  2  1  0
  2  3  2  0
  2  4  1  0
  3  5  1  0
  4  6  2  0
  5  7  1  0
  5  8  2  0
  6  8  1  0
  7  9  1  0
  7 10  2  0
  9 11  1  0
 11 12  1  0
 12 13  2  3
 13 14  1  0
 13 15  1  0
 14 16  1  1
 14 17  1  0
 17 18  1  0
 18 19  2  0
 18 20  1  0
 19 21  1  0
 19 22  1  0
 20 23  2  0
 22 24  2  0
 23 24  1  0
M  END
