mac-x0358-diamond-x0592_0_A
     RDKit          3D

 25 26  0  0  0  0  0  0  0  0999 V2000
    2.2550   12.4890   -2.5540 O   0  0  0  0  0  0  0  0  0  0  0  0
    0.9180   12.6250   -2.9580 C   0  0  0  0  0  0  0  0  0  0  0  0
    0.3270   11.3610   -2.6840 O   0  0  0  0  0  0  0  0  0  0  0  0
    0.8540   12.9230   -4.4760 C   0  0  0  0  0  0  0  0  0  0  0  0
    0.3620   13.7940   -2.1380 C   0  0  0  0  0  0  0  0  0  0  0  0
   -0.2170   13.4580   -0.7600 C   0  0  0  0  0  0  0  0  0  0  0  0
   -0.4970   13.4570   -4.8900 C   0  0  0  0  0  0  0  0  0  0  0  0
   -0.9790   14.5860   -0.1030 C   0  0  0  0  0  0  0  0  0  0  0  0
   -1.5260   12.6070   -5.2860 C   0  0  0  0  0  0  0  0  0  0  0  0
   -0.7420   14.8400   -4.8750 C   0  0  0  0  0  0  0  0  0  0  0  0
   -1.2980   11.2660   -5.3000 O   0  0  0  0  0  0  0  0  0  0  0  0
   -2.3670   14.6210   -0.5860 N   0  0  0  0  0  0  0  0  0  0  0  0
   -2.7730   13.1080   -5.6630 C   0  0  0  0  0  0  0  0  0  0  0  0
   -1.9880   15.3500   -5.2460 C   0  0  0  0  0  0  0  0  0  0  0  0
   -3.2500   14.7680    0.3150 C   0  0  0  0  0  0  0  0  0  0  0  0
   -3.0030   14.4830   -5.6420 C   0  0  0  0  0  0  0  0  0  0  0  0
   -3.0430   14.8970    1.6610 N   0  0  0  0  0  0  0  0  0  0  0  0
   -4.6620   14.8150   -0.0170 C   0  0  0  0  0  0  0  0  0  0  0  0
   -5.3380   15.1210   -1.2300 C   0  0  0  0  0  0  0  0  0  0  0  0
   -5.6810   14.5520    0.8610 C   0  0  0  0  0  0  0  0  0  0  0  0
   -6.6760   15.0480   -1.0990 N   0  0  0  0  0  0  0  0  0  0  0  0
   -6.8440   14.7000    0.1940 N   0  0  0  0  0  0  0  0  0  0  0  0
   -8.1490   14.5110    0.7940 C   0  0  0  0  0  0  0  0  0  0  0  0
   -8.0110   14.1000    2.2640 C   0  0  0  0  0  0  0  0  0  0  0  0
   -7.2730   15.0650    3.0140 O   0  0  0  0  0  0  0  0  0  0  0  0
  2  1  1  0
  2  3  1  0
  2  4  1  0
  2  5  1  0
  5  6  1  0
  4  7  1  0
  6  8  1  0
  7  9  2  0
  7 10  1  0
  9 11  1  0
  8 12  1  0
  9 13  1  0
 10 14  2  0
 12 15  2  3
 13 16  2  0
 14 16  1  0
 15 17  1  0
 15 18  1  0
 18 19  1  0
 18 20  2  0
 19 21  2  0
 20 22  1  0
 21 22  1  0
 22 23  1  0
 23 24  1  0
 24 25  1  0
M  END
