mac-x0441-mac-x0178
     RDKit          3D

 28 30  0  0  0  0  0  0  0  0999 V2000
    0.7760   10.6020   -2.6320 O   0  0  0  0  0  0  0  0  0  0  0  0
    0.1010   11.6730   -3.3110 C   0  0  1  0  0  0  0  0  0  0  0  0
    0.1570   12.9020   -2.4550 C   0  0  0  0  0  0  0  0  0  0  0  0
    0.7510   12.1360   -4.6350 C   0  0  0  0  0  0  0  0  0  0  0  0
    0.4790   12.9070   -1.2560 O   0  0  0  0  0  0  0  0  0  0  0  0
    0.3460   11.4070   -5.8150 N   0  0  0  0  0  0  0  0  0  0  0  0
   -0.2500   14.0890   -3.2290 C   0  0  0  0  0  0  0  0  0  0  0  0
    1.1260   11.4600   -6.9280 N   0  0  0  0  0  0  0  0  0  0  0  0
   -0.7560   10.6340   -5.9860 C   0  0  0  0  0  0  0  0  0  0  0  0
    0.5750   15.2180   -3.3240 C   0  0  0  0  0  0  0  0  0  0  0  0
   -1.4820   14.0610   -3.8880 C   0  0  0  0  0  0  0  0  0  0  0  0
    0.4930   10.6710   -7.8280 C   0  0  0  0  0  0  0  0  0  0  0  0
   -0.6830   10.1450   -7.2630 C   0  0  0  0  0  0  0  0  0  0  0  0
   -1.8420   10.3460   -5.0050 C   0  0  0  0  0  0  0  0  0  0  0  0
    0.1550   16.3170   -4.0810 C   0  0  0  0  0  0  0  0  0  0  0  0
   -1.9060   15.1450   -4.6380 C   0  0  0  0  0  0  0  0  0  0  0  0
    0.9500   10.3690   -9.2350 C   0  0  0  0  0  0  0  0  0  0  0  0
   -1.6980    9.2390   -7.8460 C   0  0  0  0  0  0  0  0  0  0  0  0
   -3.0050    9.6200   -5.7090 C   0  0  0  0  0  0  0  0  0  0  0  0
   -1.0910   16.2680   -4.7310 C   0  0  0  0  0  0  0  0  0  0  0  0
    1.6560    9.2130   -9.3200 F   0  0  0  0  0  0  0  0  0  0  0  0
   -0.1160   10.2030  -10.0620 F   0  0  0  0  0  0  0  0  0  0  0  0
    1.6740   11.3180   -9.8540 F   0  0  0  0  0  0  0  0  0  0  0  0
   -1.6640   17.6420   -5.6870 S   0  0  0  0  0  0  0  0  0  0  0  0
   -2.5110    8.5760   -6.7220 C   0  0  0  0  0  0  0  0  0  0  0  0
   -0.2590   18.1980   -6.4060 N   0  0  0  0  0  0  0  0  0  0  0  0
   -2.5070   17.1450   -6.7480 O   0  0  0  0  0  0  0  0  0  0  0  0
   -2.1290   18.6560   -4.7820 O   0  0  0  0  0  0  0  0  0  0  0  0
  2  1  1  1
  2  3  1  0
  2  4  1  0
  3  5  2  0
  4  6  1  0
  3  7  1  0
  6  8  1  0
  6  9  1  0
  7 10  2  0
  7 11  1  0
  8 12  2  0
  9 13  2  0
 12 13  1  0
  9 14  1  0
 10 15  1  0
 11 16  2  0
 12 17  1  0
 13 18  1  0
 14 19  1  0
 15 20  2  0
 16 20  1  0
 17 21  1  0
 17 22  1  0
 17 23  1  0
 20 24  1  0
 18 25  1  0
 19 25  1  0
 24 26  1  0
 24 27  2  0
 24 28  2  0
M  END
