mac-x0301-mac-x0441
     RDKit          3D

 30 33  0  0  0  0  0  0  0  0999 V2000
    0.2920   14.1430   -2.6160 O   0  0  0  0  0  0  0  0  0  0  0  0
   -0.9180   14.5120   -3.0410 C   0  0  0  0  0  0  0  0  0  0  0  0
   -1.0510   14.5430   -4.3030 N   0  0  0  0  0  0  0  0  0  0  0  0
   -1.7750   14.7870   -1.8900 C   0  0  0  0  0  0  0  0  0  0  0  0
    0.1340   14.0920   -5.0330 C   0  0  0  0  0  0  0  0  0  0  0  0
   -1.2760   14.6280   -0.6040 C   0  0  0  0  0  0  0  0  0  0  0  0
   -3.1030   15.2140   -2.0470 C   0  0  0  0  0  0  0  0  0  0  0  0
    0.1390   12.5790   -4.8040 C   0  0  2  0  0  0  0  0  0  0  0  0
   -2.0610   14.8910    0.5040 C   0  0  0  0  0  0  0  0  0  0  0  0
   -3.8970   15.4770   -0.9090 C   0  0  0  0  0  0  0  0  0  0  0  0
   -0.0330   14.2220   -0.2580 O   0  0  0  0  0  0  0  0  0  0  0  0
    1.0430   12.1120   -3.6750 C   0  0  0  0  0  0  0  0  0  0  0  0
   -3.3710   15.3150    0.3860 C   0  0  0  0  0  0  0  0  0  0  0  0
   -1.3870   14.6880    1.6780 O   0  0  0  0  0  0  0  0  0  0  0  0
   -0.0720   14.4200    1.1660 C   0  0  0  0  0  0  0  0  0  0  0  0
    0.0160   11.7760   -6.0190 N   0  0  0  0  0  0  0  0  0  0  0  0
    0.8840   10.8440   -3.2480 O   0  0  0  0  0  0  0  0  0  0  0  0
    1.8700   12.8420   -3.1410 O   0  0  0  0  0  0  0  0  0  0  0  0
    0.8890   11.8050   -7.0750 N   0  0  0  0  0  0  0  0  0  0  0  0
   -1.0060   10.9020   -6.2130 C   0  0  0  0  0  0  0  0  0  0  0  0
    0.3680   10.9010   -7.9620 C   0  0  0  0  0  0  0  0  0  0  0  0
   -0.8110   10.3320   -7.4420 C   0  0  0  0  0  0  0  0  0  0  0  0
   -2.1260   10.6050   -5.2750 C   0  0  0  0  0  0  0  0  0  0  0  0
    0.9090   10.4960   -9.3200 C   0  0  0  0  0  0  0  0  0  0  0  0
   -1.7260    9.3080   -8.0030 C   0  0  0  0  0  0  0  0  0  0  0  0
   -3.1440    9.6450   -5.9230 C   0  0  0  0  0  0  0  0  0  0  0  0
    1.6040    9.3290   -9.2580 F   0  0  0  0  0  0  0  0  0  0  0  0
   -0.0860   10.2800  -10.2120 F   0  0  0  0  0  0  0  0  0  0  0  0
    1.7070   11.3870   -9.9370 F   0  0  0  0  0  0  0  0  0  0  0  0
   -2.4780    8.6170   -6.8540 C   0  0  0  0  0  0  0  0  0  0  0  0
  1  2  1  0
  2  3  2  3
  2  4  1  0
  3  5  1  0
  4  6  1  0
  4  7  2  0
  8  5  1  6
  6  9  2  0
  7 10  1  0
  6 11  1  0
  8 12  1  0
  9 13  1  0
 10 13  2  0
  9 14  1  0
 11 15  1  0
 14 15  1  0
  8 16  1  0
 12 17  1  0
 12 18  2  0
 16 19  1  0
 16 20  1  0
 19 21  2  0
 20 22  2  0
 21 22  1  0
 20 23  1  0
 21 24  1  0
 22 25  1  0
 23 26  1  0
 24 27  1  0
 24 28  1  0
 24 29  1  0
 25 30  1  0
 26 30  1  0
M  END
