mac-x0404-diamond-x1018_0_A
     RDKit          3D

 26 29  0  0  0  0  0  0  0  0999 V2000
    1.3530   12.8200   -2.1020 O   0  0  0  0  0  0  0  0  0  0  0  0
    0.9480   12.0780   -3.1500 C   0  0  0  0  0  0  0  0  0  0  0  0
    0.4080   10.9990   -2.9570 O   0  0  0  0  0  0  0  0  0  0  0  0
    1.2290   12.7040   -4.5060 C   0  0  0  0  0  0  0  0  0  0  0  0
    1.2700   14.1280   -4.4130 O   0  0  0  0  0  0  0  0  0  0  0  0
    0.0170   14.6870   -4.5560 C   0  0  0  0  0  0  0  0  0  0  0  0
   -0.1210   16.0070   -5.0100 C   0  0  0  0  0  0  0  0  0  0  0  0
   -1.1050   13.9380   -4.2380 C   0  0  0  0  0  0  0  0  0  0  0  0
   -1.3960   16.5750   -5.1540 C   0  0  0  0  0  0  0  0  0  0  0  0
   -2.3680   14.5080   -4.3700 C   0  0  0  0  0  0  0  0  0  0  0  0
    0.9840   16.7770   -5.3230 C   0  0  0  0  0  0  0  0  0  0  0  0
   -3.5820   13.7200   -4.0030 C   0  0  0  0  0  0  0  0  0  0  0  0
   -2.5130   15.8110   -4.8330 C   0  0  0  0  0  0  0  0  0  0  0  0
   -1.5260   17.8910   -5.6120 C   0  0  0  0  0  0  0  0  0  0  0  0
    0.8590   18.0880   -5.7700 C   0  0  0  0  0  0  0  0  0  0  0  0
   -0.4010   18.6460   -5.9170 C   0  0  0  0  0  0  0  0  0  0  0  0
   -4.0240   13.8830   -2.5800 N   0  0  0  0  0  0  0  0  0  0  0  0
   -3.2210   14.4840   -1.4940 N   0  0  0  0  0  0  0  0  0  0  0  0
   -5.3020   14.5250   -2.5120 N   0  0  0  0  0  0  0  0  0  0  0  0
   -5.4110   14.7730   -1.1540 N   0  0  0  0  0  0  0  0  0  0  0  0
   -4.2440   14.2300   -0.4850 C   0  0  2  0  0  0  0  0  0  0  0  0
   -6.6420   14.6090   -0.6190 N   0  0  0  0  0  0  0  0  0  0  0  0
   -4.2230   14.7810    0.8860 C   0  0  0  0  0  0  0  0  0  0  0  0
   -6.6370   14.7190    0.6690 C   0  0  0  0  0  0  0  0  0  0  0  0
   -5.4100   15.0200    1.4810 C   0  0  0  0  0  0  0  0  0  0  0  0
   -8.1750   14.5180    1.4290 Cl  0  0  0  0  0  0  0  0  0  0  0  0
  1  2  1  0
  2  3  2  0
  2  4  1  0
  4  5  1  0
  5  6  1  0
  6  7  2  0
  6  8  1  0
  7  9  1  0
  8 10  2  0
  7 11  1  0
 10 12  1  0
  9 13  2  0
 10 13  1  0
  9 14  1  0
 11 15  2  0
 14 16  2  0
 15 16  1  0
 12 17  1  0
 17 18  1  0
 17 19  1  0
 19 20  1  0
 18 21  1  0
 20 21  1  0
 20 22  1  0
 21 23  1  1
 22 24  2  0
 23 25  2  0
 24 25  1  0
 24 26  1  0
M  END
