mac-x0123-mac-x0361
     RDKit          3D

 17 19  0  0  0  0  0  0  0  0999 V2000
   -3.3100   13.9800    1.6850 N   0  0  0  0  0  0  0  0  0  0  0  0
   -4.4660   14.2160    0.8280 C   0  0  2  0  0  0  0  0  0  0  0  0
   -5.8620   14.1580    1.4890 C   0  0  1  0  0  0  0  0  0  0  0  0
   -4.3860   13.3720   -0.3770 N   0  0  0  0  0  0  0  0  0  0  0  0
   -5.5340   13.2980   -1.2870 C   0  0  1  0  0  0  0  0  0  0  0  0
   -7.0310   14.0700    0.4990 C   0  0  1  0  0  0  0  0  0  0  0  0
   -6.1870   12.9340    2.3060 C   0  0  0  0  0  0  0  0  0  0  0  0
   -3.3040   13.7580   -1.2820 N   0  0  0  0  0  0  0  0  0  0  0  0
   -6.8260   13.1710   -0.6460 N   0  0  0  0  0  0  0  0  0  0  0  0
   -8.2040   13.6890    1.4150 C   0  0  0  0  0  0  0  0  0  0  0  0
   -7.5040   12.6780    2.2650 C   0  0  0  0  0  0  0  0  0  0  0  0
   -5.3670   14.5390   -1.9160 N   0  0  0  0  0  0  0  0  0  0  0  0
   -3.9970   14.5140   -2.3410 C   0  0  1  0  0  0  0  0  0  0  0  0
   -5.8380   15.6240   -1.2500 C   0  0  0  0  0  0  0  0  0  0  0  0
   -3.4980   15.8200   -2.3460 O   0  0  0  0  0  0  0  0  0  0  0  0
   -4.9740   16.1300   -0.3490 N   0  0  0  0  0  0  0  0  0  0  0  0
   -6.9520   16.1190   -1.3800 O   0  0  0  0  0  0  0  0  0  0  0  0
  2  1  1  1
  2  3  1  0
  2  4  1  0
  4  5  1  0
  3  6  1  0
  3  7  1  1
  4  8  1  0
  5  9  1  1
  6  9  1  0
  6 10  1  1
  7 11  2  0
 10 11  1  0
  5 12  1  0
  8 13  1  0
 12 13  1  0
 12 14  1  0
 13 15  1  1
 14 16  1  0
 14 17  2  0
M  END
