mac-x0397-mac-x0213
     RDKit          3D

 25 28  0  0  0  0  0  0  0  0999 V2000
   -6.5020   15.2720   -2.3750 Cl  0  0  0  0  0  0  0  0  0  0  0  0
   -4.9830   15.0430   -1.6350 C   0  0  0  0  0  0  0  0  0  0  0  0
   -5.0260   14.9040   -0.2430 C   0  0  0  0  0  0  0  0  0  0  0  0
   -3.7740   14.9860   -2.3390 C   0  0  0  0  0  0  0  0  0  0  0  0
   -6.1280   14.9270    0.6050 N   0  0  0  0  0  0  0  0  0  0  0  0
   -3.8160   14.7110    0.3970 C   0  0  0  0  0  0  0  0  0  0  0  0
   -2.5830   14.7770   -1.6190 C   0  0  0  0  0  0  0  0  0  0  0  0
   -1.2340   14.6680   -2.2230 C   0  0  0  0  0  0  0  0  0  0  0  0
   -5.7420   14.7630    1.8440 C   0  0  0  0  0  0  0  0  0  0  0  0
   -4.0660   14.5700    2.0500 S   0  0  0  0  0  0  0  0  0  0  0  0
   -2.6120   14.6450   -0.2500 C   0  0  0  0  0  0  0  0  0  0  0  0
   -6.5900   14.7470    2.8910 N   0  0  0  0  0  0  0  0  0  0  0  0
   -0.5550   13.3590   -1.8190 C   0  0  0  0  0  0  0  0  0  0  0  0
    0.4020   12.8100   -2.8600 C   0  0  0  0  0  0  0  0  0  0  0  0
    0.1000   11.4290   -2.9910 O   0  0  0  0  0  0  0  0  0  0  0  0
    1.6910   12.8840   -2.2910 O   0  0  0  0  0  0  0  0  0  0  0  0
    0.3430   13.6290   -4.1790 C   0  0  0  0  0  0  0  0  0  0  0  0
   -1.1230   13.9830   -4.5910 C   0  0  0  0  0  0  0  0  0  0  0  0
    1.1300   14.9670   -4.1030 C   0  0  0  0  0  0  0  0  0  0  0  0
   -1.0910   15.4570   -4.8690 C   0  0  0  0  0  0  0  0  0  0  0  0
    0.1690   15.9990   -4.6050 C   0  0  0  0  0  0  0  0  0  0  0  0
   -2.1290   16.2530   -5.3360 C   0  0  0  0  0  0  0  0  0  0  0  0
    0.4160   17.3450   -4.8100 C   0  0  0  0  0  0  0  0  0  0  0  0
   -1.8820   17.6090   -5.5460 C   0  0  0  0  0  0  0  0  0  0  0  0
   -0.6180   18.1480   -5.2860 C   0  0  0  0  0  0  0  0  0  0  0  0
  1  2  1  0
  2  3  2  0
  2  4  1  0
  3  5  1  0
  3  6  1  0
  4  7  2  0
  7  8  1  0
  5  9  2  0
  6 10  1  0
  9 10  1  0
  6 11  2  0
  7 11  1  0
  9 12  1  0
  8 13  1  0
 13 14  1  0
 14 15  1  0
 14 16  1  0
 14 17  1  0
 17 18  1  0
 17 19  1  0
 18 20  1  0
 19 21  1  0
 20 21  2  0
 20 22  1  0
 21 23  1  0
 22 24  2  0
 23 25  2  0
 24 25  1  0
M  END
