mac-x0182-mac-x0319
     RDKit          3D

 22 24  0  0  0  0  0  0  0  0999 V2000
    1.6960   11.7340   -6.9780 O   0  0  0  0  0  0  0  0  0  0  0  0
    0.6480   11.4930   -6.4240 C   0  0  0  0  0  0  0  0  0  0  0  0
    0.1200   12.1810   -5.3790 N   0  0  0  0  0  0  0  0  0  0  0  0
   -0.2370   10.3640   -6.7650 C   0  0  0  0  0  0  0  0  0  0  0  0
   -0.8620   11.1920   -4.4370 S   0  0  2  0  0  0  0  0  0  0  0  0
   -1.1330   10.0770   -5.7340 C   0  0  0  0  0  0  0  0  0  0  0  0
   -0.2480    9.6250   -7.9320 C   0  0  0  0  0  0  0  0  0  0  0  0
   -2.0650   11.9620   -4.2590 O   0  0  0  0  0  0  0  0  0  0  0  0
    0.0910   10.7610   -3.3400 N   0  0  0  0  0  0  0  0  0  0  0  0
   -2.0600    9.0640   -5.8110 C   0  0  0  0  0  0  0  0  0  0  0  0
   -1.1840    8.5880   -8.0390 C   0  0  0  0  0  0  0  0  0  0  0  0
    0.7440   11.8420   -2.7120 C   0  0  0  0  0  0  0  0  0  0  0  0
   -2.0820    8.3120   -6.9840 C   0  0  0  0  0  0  0  0  0  0  0  0
    0.6720   12.0640   -1.5010 O   0  0  0  0  0  0  0  0  0  0  0  0
    1.5530   12.7860   -3.5950 C   0  0  0  0  0  0  0  0  0  0  0  0
    0.7670   14.0340   -3.9490 C   0  0  0  0  0  0  0  0  0  0  0  0
    1.4230   15.2540   -4.1600 C   0  0  0  0  0  0  0  0  0  0  0  0
   -0.6350   13.9970   -4.0670 C   0  0  0  0  0  0  0  0  0  0  0  0
    0.6710   16.3850   -4.4790 C   0  0  0  0  0  0  0  0  0  0  0  0
   -1.3640   15.1380   -4.3920 C   0  0  0  0  0  0  0  0  0  0  0  0
    1.2440   17.5950   -4.6880 O   0  0  0  0  0  0  0  0  0  0  0  0
   -0.7040   16.3360   -4.5990 C   0  0  0  0  0  0  0  0  0  0  0  0
  1  2  2  0
  2  3  1  0
  2  4  1  0
  5  3  1  6
  4  6  2  0
  5  6  1  0
  4  7  1  0
  5  8  2  0
  5  9  2  0
  6 10  1  0
  7 11  2  0
  9 12  1  0
 10 13  2  0
 11 13  1  0
 12 14  2  0
 12 15  1  0
 15 16  1  0
 16 17  2  0
 16 18  1  0
 17 19  1  0
 18 20  2  0
 19 21  1  0
 19 22  2  0
 20 22  1  0
M  END
