mac-x0358-mac-x0138
     RDKit          3D

 23 25  0  0  0  0  0  0  0  0999 V2000
    1.4600   12.6880   -2.1100 O   0  0  0  0  0  0  0  0  0  0  0  0
    0.6980   12.0140   -2.9880 C   0  0  0  0  0  0  0  0  0  0  0  0
    0.0720   11.0210   -2.6400 O   0  0  0  0  0  0  0  0  0  0  0  0
    0.6720   12.5710   -4.3810 C   0  0  0  0  0  0  0  0  0  0  0  0
   -0.6510   13.1050   -4.9040 C   0  0  0  0  0  0  0  0  0  0  0  0
   -1.2470   12.4330   -5.9610 C   0  0  0  0  0  0  0  0  0  0  0  0
   -1.3250   14.2250   -4.4010 C   0  0  0  0  0  0  0  0  0  0  0  0
   -0.6060   11.3250   -6.4280 O   0  0  0  0  0  0  0  0  0  0  0  0
   -0.8470   15.0010   -3.2330 C   0  0  0  0  0  0  0  0  0  0  0  0
   -2.4450   12.8490   -6.5330 C   0  0  0  0  0  0  0  0  0  0  0  0
   -2.5280   14.6570   -4.9860 C   0  0  0  0  0  0  0  0  0  0  0  0
   -3.0890   13.9760   -6.0500 C   0  0  0  0  0  0  0  0  0  0  0  0
   -1.9260   15.0420   -2.2440 N   0  0  0  0  0  0  0  0  0  0  0  0
   -3.2570   15.3130   -2.5020 C   0  0  0  0  0  0  0  0  0  0  0  0
   -1.8160   14.8340   -0.8910 C   0  0  0  0  0  0  0  0  0  0  0  0
   -3.9900   15.3070   -1.4130 N   0  0  0  0  0  0  0  0  0  0  0  0
   -3.1010   15.0190   -0.4060 C   0  0  0  0  0  0  0  0  0  0  0  0
   -0.7210   14.5310   -0.1700 N   0  0  0  0  0  0  0  0  0  0  0  0
   -3.2660   14.8940    0.9670 C   0  0  0  0  0  0  0  0  0  0  0  0
   -0.9950   14.4210    1.1450 C   0  0  0  0  0  0  0  0  0  0  0  0
   -4.5010   15.0810    1.5620 N   0  0  0  0  0  0  0  0  0  0  0  0
    0.0340   14.1100    2.0160 N   0  0  0  0  0  0  0  0  0  0  0  0
   -2.1850   14.5900    1.7290 N   0  0  0  0  0  0  0  0  0  0  0  0
  1  2  1  0
  2  3  2  0
  2  4  1  0
  4  5  1  0
  5  6  2  0
  5  7  1  0
  6  8  1  0
  7  9  1  0
  6 10  1  0
  7 11  2  0
 10 12  2  0
 11 12  1  0
  9 13  1  0
 13 14  1  0
 13 15  1  0
 14 16  2  0
 15 17  2  0
 16 17  1  0
 15 18  1  0
 17 19  1  0
 18 20  2  0
 19 21  1  0
 20 22  1  0
 19 23  2  0
 20 23  1  0
M  END
