mac-x1493-mac-x0546
     RDKit          3D

 29 32  0  0  0  0  0  0  0  0999 V2000
   -1.5290   14.7550   -1.5490 O   0  0  0  0  0  0  0  0  0  0  0  0
   -2.6540   14.8450   -2.2910 C   0  0  0  0  0  0  0  0  0  0  0  0
   -2.6630   14.9630   -3.5500 N   0  0  0  0  0  0  0  0  0  0  0  0
   -3.8860   14.7840   -1.5410 C   0  0  0  0  0  0  0  0  0  0  0  0
   -3.9400   15.0630   -4.2770 C   0  0  0  0  0  0  0  0  0  0  0  0
   -3.8720   14.9560   -0.1760 C   0  0  0  0  0  0  0  0  0  0  0  0
   -5.0880   14.5460   -2.1760 C   0  0  0  0  0  0  0  0  0  0  0  0
   -3.6190   15.8850   -5.4450 N   0  0  0  0  0  0  0  0  0  0  0  0
   -5.0770   14.8700    0.5090 C   0  0  0  0  0  0  0  0  0  0  0  0
   -6.2670   14.4630   -1.5460 N   0  0  0  0  0  0  0  0  0  0  0  0
   -4.1110   15.1500   -6.5980 C   0  0  0  0  0  0  0  0  0  0  0  0
   -6.2590   14.6180   -0.2240 C   0  0  0  0  0  0  0  0  0  0  0  0
   -5.1280   15.0240    1.8830 C   0  0  0  0  0  0  0  0  0  0  0  0
   -2.2960   16.0870   -5.1660 C   0  0  0  0  0  0  0  0  0  0  0  0
   -7.4560   14.5240    0.4630 C   0  0  0  0  0  0  0  0  0  0  0  0
   -6.3460   14.9240    2.5560 C   0  0  0  0  0  0  0  0  0  0  0  0
   -1.6860   14.9720   -4.7800 C   0  0  0  0  0  0  0  0  0  0  0  0
   -1.5620   17.3720   -5.1480 C   0  0  0  0  0  0  0  0  0  0  0  0
   -7.5110   14.6730    1.8450 C   0  0  0  0  0  0  0  0  0  0  0  0
   -0.3380   14.9840   -4.2680 C   0  0  2  0  0  0  0  0  0  0  0  0
   -0.2220   17.4530   -4.9400 C   0  0  0  0  0  0  0  0  0  0  0  0
    0.4500   16.1490   -4.7480 C   0  0  0  0  0  0  0  0  0  0  0  0
    0.6570   13.9150   -4.4440 C   0  0  0  0  0  0  0  0  0  0  0  0
    0.4120   12.4570   -4.2760 C   0  0  0  0  0  0  0  0  0  0  0  0
    1.6830   15.8700   -4.9220 N   0  0  0  0  0  0  0  0  0  0  0  0
    1.7850   14.5020   -4.7410 C   0  0  0  0  0  0  0  0  0  0  0  0
    0.4740   11.9920   -2.8430 C   0  0  0  0  0  0  0  0  0  0  0  0
    0.9760   12.5530   -1.8900 O   0  0  0  0  0  0  0  0  0  0  0  0
   -0.1290   10.7930   -2.6870 O   0  0  0  0  0  0  0  0  0  0  0  0
  1  2  1  0
  2  3  2  3
  2  4  1  0
  3  5  1  0
  4  6  2  0
  4  7  1  0
  5  8  1  0
  6  9  1  0
  7 10  2  0
  8 11  1  0
  9 12  2  0
 10 12  1  0
  9 13  1  0
  8 14  1  0
 12 15  1  0
 13 16  2  0
 14 17  2  0
 14 18  1  0
 15 19  2  0
 16 19  1  0
 20 17  1  6
 18 21  2  0
 20 22  1  0
 21 22  1  0
 20 23  1  0
 23 24  1  0
 22 25  2  0
 23 26  2  0
 25 26  1  0
 24 27  1  0
 27 28  2  0
 27 29  1  0
M  END
