mac-x0193-diamond-x0631_0_A
     RDKit          3D

 29 31  0  0  0  0  0  0  0  0999 V2000
    0.0880   10.9600   -3.1410 O   0  0  0  0  0  0  0  0  0  0  0  0
    0.6630   12.1750   -3.2220 C   0  0  0  0  0  0  0  0  0  0  0  0
    1.0850   12.7300   -2.2210 O   0  0  0  0  0  0  0  0  0  0  0  0
    0.7040   12.7520   -4.6260 C   0  0  0  0  0  0  0  0  0  0  0  0
    0.2250   11.7870   -5.6030 N   0  0  0  0  0  0  0  0  0  0  0  0
    1.0200   11.5980   -6.6900 C   0  0  0  0  0  0  0  0  0  0  0  0
    2.1770   11.9990   -6.6800 O   0  0  0  0  0  0  0  0  0  0  0  0
    0.4970   10.9330   -7.7860 N   0  0  0  0  0  0  0  0  0  0  0  0
    0.1760    9.4850   -7.9040 C   0  0  1  0  0  0  0  0  0  0  0  0
    1.2820   11.1910   -8.9500 N   0  0  0  0  0  0  0  0  0  0  0  0
   -0.7150    9.0100   -9.0960 C   0  0  0  0  0  0  0  0  0  0  0  0
    1.2910    9.9100   -9.5860 C   0  0  2  0  0  0  0  0  0  0  0  0
    1.4680    9.0930   -8.4200 N   0  0  0  0  0  0  0  0  0  0  0  0
   -0.1910    8.7650   -6.5640 C   0  0  0  0  0  0  0  0  0  0  0  0
    2.3830    9.7560  -10.4420 N   0  0  0  0  0  0  0  0  0  0  0  0
   -0.3240    7.5530   -9.4120 C   0  0  0  0  0  0  0  0  0  0  0  0
   -0.7050    9.8630  -10.4070 C   0  0  0  0  0  0  0  0  0  0  0  0
   -1.5470    8.0660   -6.5190 C   0  0  0  0  0  0  0  0  0  0  0  0
    2.2190    9.7470  -11.8700 C   0  0  2  0  0  0  0  0  0  0  0  0
    0.7270    7.4040  -10.4970 C   0  0  0  0  0  0  0  0  0  0  0  0
   -0.7900    9.0670  -11.7250 C   0  0  0  0  0  0  0  0  0  0  0  0
   -2.6720    9.0170   -6.9060 C   0  0  0  0  0  0  0  0  0  0  0  0
    2.7670    8.4720  -12.2130 O   0  0  0  0  0  0  0  0  0  0  0  0
    0.1920    7.8950  -11.8340 C   0  0  0  0  0  0  0  0  0  0  0  0
    2.9870   10.7740  -12.7500 C   0  0  1  0  0  0  0  0  0  0  0  0
    4.1360   10.0430  -13.2730 O   0  0  0  0  0  0  0  0  0  0  0  0
    2.3130   11.3640  -13.9660 C   0  0  0  0  0  0  0  0  0  0  0  0
    3.5100   11.6820  -14.8280 C   0  0  0  0  0  0  0  0  0  0  0  0
    4.3700   10.4620  -14.6200 C   0  0  0  0  0  0  0  0  0  0  0  0
  1  2  1  0
  2  3  2  0
  2  4  1  0
  4  5  1  0
  5  6  1  0
  6  7  2  0
  6  8  1  0
  8  9  1  0
  8 10  1  0
  9 11  1  0
 10 12  1  0
  9 13  1  0
 12 13  1  0
  9 14  1  1
 12 15  1  6
 11 16  1  0
 11 17  1  0
 14 18  1  0
 15 19  1  0
 16 20  1  0
 17 21  1  0
 18 22  1  0
 19 23  1  6
 20 24  1  0
 21 24  1  0
 19 25  1  0
 25 26  1  0
 25 27  1  6
 27 28  1  0
 26 29  1  0
 28 29  1  0
M  END
