mac-x0348-diamond-x0592_0_A
     RDKit          3D

 28 30  0  0  0  0  0  0  0  0999 V2000
    0.3320   18.6900   -6.1340 C   0  0  0  0  0  0  0  0  0  0  0  0
   -0.0860   17.5060   -5.4350 N   0  0  0  0  0  0  0  0  0  0  0  0
    0.7120   16.7990   -4.5910 C   0  0  0  0  0  0  0  0  0  0  0  0
   -1.3260   16.9060   -5.5050 C   0  0  0  0  0  0  0  0  0  0  0  0
    0.0200   15.7230   -4.1070 C   0  0  0  0  0  0  0  0  0  0  0  0
   -1.2770   15.7780   -4.6790 C   0  0  0  0  0  0  0  0  0  0  0  0
   -2.4850   17.2350   -6.2110 C   0  0  0  0  0  0  0  0  0  0  0  0
    0.5590   14.6940   -3.1560 C   0  0  2  0  0  0  0  0  0  0  0  0
   -2.4030   14.9600   -4.5600 C   0  0  0  0  0  0  0  0  0  0  0  0
   -3.5870   16.3800   -6.0540 C   0  0  0  0  0  0  0  0  0  0  0  0
    1.1810   13.5400   -3.9420 C   0  0  0  0  0  0  0  0  0  0  0  0
   -0.4900   14.0350   -2.2420 C   0  0  0  0  0  0  0  0  0  0  0  0
   -3.5510   15.2710   -5.2530 C   0  0  0  0  0  0  0  0  0  0  0  0
    1.1540   12.3640   -3.0170 C   0  0  0  0  0  0  0  0  0  0  0  0
   -0.8810   14.7290   -0.9330 C   0  0  0  0  0  0  0  0  0  0  0  0
    1.6570   12.4110   -1.9160 O   0  0  0  0  0  0  0  0  0  0  0  0
    0.5140   11.2590   -3.4870 O   0  0  0  0  0  0  0  0  0  0  0  0
   -2.3540   14.8280   -0.9730 N   0  0  0  0  0  0  0  0  0  0  0  0
   -3.1850   14.7640    0.0160 C   0  0  0  0  0  0  0  0  0  0  0  0
   -2.7730   14.6080    1.3190 N   0  0  0  0  0  0  0  0  0  0  0  0
   -4.6230   14.8290   -0.1430 C   0  0  0  0  0  0  0  0  0  0  0  0
   -5.3840   15.1930   -1.2840 C   0  0  0  0  0  0  0  0  0  0  0  0
   -5.5860   14.5360    0.7980 C   0  0  0  0  0  0  0  0  0  0  0  0
   -6.7100   15.1310   -1.0710 N   0  0  0  0  0  0  0  0  0  0  0  0
   -6.7990   14.7270    0.2080 N   0  0  0  0  0  0  0  0  0  0  0  0
   -8.0840   14.5280    0.8580 C   0  0  0  0  0  0  0  0  0  0  0  0
   -7.9070   14.1000    2.3110 C   0  0  0  0  0  0  0  0  0  0  0  0
   -7.1490   15.0470    3.0640 O   0  0  0  0  0  0  0  0  0  0  0  0
  1  2  1  0
  2  3  1  0
  2  4  1  0
  3  5  2  0
  4  6  2  0
  5  6  1  0
  4  7  1  0
  5  8  1  0
  6  9  1  0
  7 10  2  0
  8 11  1  6
  8 12  1  0
  9 13  2  0
 10 13  1  0
 11 14  1  0
 12 15  1  0
 14 16  2  0
 14 17  1  0
 15 18  1  0
 18 19  2  3
 19 20  1  0
 19 21  1  0
 21 22  1  0
 21 23  2  0
 22 24  2  0
 23 25  1  0
 24 25  1  0
 25 26  1  0
 26 27  1  0
 27 28  1  0
M  END
