mac-x0115-mac-x0361
     RDKit          3D

 20 21  0  0  0  0  0  0  0  0999 V2000
   -1.4050   18.6270   -5.1870 C   0  0  0  0  0  0  0  0  0  0  0  0
   -0.4350   17.6480   -5.8100 C   0  0  0  0  0  0  0  0  0  0  0  0
    0.9990   17.9790   -5.4510 C   0  0  0  0  0  0  0  0  0  0  0  0
   -0.7330   16.3320   -5.3330 O   0  0  0  0  0  0  0  0  0  0  0  0
    0.2760   15.6640   -4.5650 C   0  0  0  0  0  0  0  0  0  0  0  0
   -0.3720   14.4880   -3.8090 C   0  0  0  0  0  0  0  0  0  0  0  0
   -0.4390   14.6950   -2.3360 N   0  0  0  0  0  0  0  0  0  0  0  0
    0.7060   14.4150   -1.5370 C   0  0  0  0  0  0  0  0  0  0  0  0
   -1.6720   14.8950   -1.6540 C   0  0  0  0  0  0  0  0  0  0  0  0
    2.2720   14.0890   -2.0580 S   0  0  0  0  0  0  0  0  0  0  0  0
    0.5100   14.4030   -0.1610 N   0  0  0  0  0  0  0  0  0  0  0  0
   -1.5900   15.5460   -0.3220 C   0  0  2  0  0  0  0  0  0  0  0  0
   -2.9800   14.6120   -1.9510 C   0  0  0  0  0  0  0  0  0  0  0  0
   -0.6230   14.7860    0.5450 C   0  0  0  0  0  0  0  0  0  0  0  0
   -2.9600   15.5960    0.2180 N   0  0  0  0  0  0  0  0  0  0  0  0
   -3.6970   15.0680   -0.7090 C   0  0  0  0  0  0  0  0  0  0  0  0
   -0.7900   14.5150    1.7400 O   0  0  0  0  0  0  0  0  0  0  0  0
   -5.2240   14.9230   -0.3820 C   0  0  0  0  0  0  0  0  0  0  0  0
   -5.4800   14.8950    0.9690 N   0  0  0  0  0  0  0  0  0  0  0  0
   -6.1140   14.8420   -1.2120 O   0  0  0  0  0  0  0  0  0  0  0  0
  1  2  1  0
  2  3  1  0
  2  4  1  0
  4  5  1  0
  5  6  1  0
  6  7  1  0
  7  8  1  0
  7  9  1  0
  8 10  2  0
  8 11  1  0
  9 12  1  0
  9 13  2  0
 11 14  1  0
 12 14  1  0
 12 15  1  1
 13 16  1  0
 15 16  2  0
 14 17  2  0
 16 18  1  0
 18 19  1  0
 18 20  2  0
M  END
