mac-x0346-mac-x0148
     RDKit          3D

 24 27  0  0  0  0  0  0  0  0999 V2000
   -7.5230   14.1780    1.0870 O   0  0  0  0  0  0  0  0  0  0  0  0
   -7.6030   14.9790   -0.0830 N   0  0  0  0  0  0  0  0  0  0  0  0
   -6.5100   14.9780   -0.9310 C   0  0  0  0  0  0  0  0  0  0  0  0
   -6.6600   14.9530   -2.1470 O   0  0  0  0  0  0  0  0  0  0  0  0
   -5.1360   14.9950   -0.3400 C   0  0  0  0  0  0  0  0  0  0  0  0
   -3.9900   14.7540   -1.1430 C   0  0  0  0  0  0  0  0  0  0  0  0
   -4.9650   15.2410    1.0090 C   0  0  0  0  0  0  0  0  0  0  0  0
   -4.1830   14.5130   -2.4770 O   0  0  0  0  0  0  0  0  0  0  0  0
   -2.6390   14.7520   -0.5870 C   0  0  0  0  0  0  0  0  0  0  0  0
   -3.6970   15.2520    1.5490 C   0  0  0  0  0  0  0  0  0  0  0  0
   -2.5620   15.0190    0.8050 C   0  0  0  0  0  0  0  0  0  0  0  0
   -1.3140   14.5200   -1.1640 C   0  0  0  0  0  0  0  0  0  0  0  0
   -0.9500   14.1860   -2.4930 N   0  0  0  0  0  0  0  0  0  0  0  0
   -0.1960   14.5850   -0.4010 N   0  0  0  0  0  0  0  0  0  0  0  0
   -1.4490   15.0690    1.5260 N   0  0  0  0  0  0  0  0  0  0  0  0
   -1.5130   14.6000   -3.8040 C   0  0  2  0  0  0  0  0  0  0  0  0
    0.1880   13.2350   -2.5800 C   0  0  0  0  0  0  0  0  0  0  0  0
   -0.3160   14.8540    0.8880 C   0  0  0  0  0  0  0  0  0  0  0  0
   -2.8080   15.3440   -4.0470 C   0  0  0  0  0  0  0  0  0  0  0  0
   -1.7860   13.3420   -4.6270 C   0  0  1  0  0  0  0  0  0  0  0  0
    0.0060   12.0990   -3.5990 C   0  0  0  0  0  0  0  0  0  0  0  0
   -2.6590   13.8020   -5.7680 C   0  0  0  0  0  0  0  0  0  0  0  0
   -3.0270   15.1630   -5.4690 O   0  0  0  0  0  0  0  0  0  0  0  0
   -0.4960   12.6230   -4.9420 C   0  0  0  0  0  0  0  0  0  0  0  0
  1  2  1  0
  2  3  1  0
  3  4  2  0
  3  5  1  0
  5  6  2  0
  5  7  1  0
  6  8  1  0
  6  9  1  0
  7 10  2  0
  9 11  2  0
 10 11  1  0
  9 12  1  0
 12 13  1  0
 12 14  2  0
 11 15  1  0
 13 16  1  0
 13 17  1  0
 14 18  1  0
 15 18  2  0
 16 19  1  1
 16 20  1  0
 17 21  1  0
 20 22  1  6
 19 23  1  0
 22 23  1  0
 20 24  1  0
 21 24  1  0
M  END
