mac-x0301-diamond-x0685_1_A
     RDKit          3D

 23 25  0  0  0  0  0  0  0  0999 V2000
    0.4800   14.1380   -2.7660 O   0  0  0  0  0  0  0  0  0  0  0  0
   -0.7770   13.8250   -3.0930 C   0  0  0  0  0  0  0  0  0  0  0  0
   -0.8890   13.1230   -4.1890 N   0  0  0  0  0  0  0  0  0  0  0  0
    1.4550   12.9150   -2.3230 S   0  0  0  0  0  0  0  0  0  0  0  0
    2.4870   12.6650   -3.5310 O   0  0  0  0  0  0  0  0  0  0  0  0
    0.5510   11.5630   -2.3650 O   0  0  0  0  0  0  0  0  0  0  0  0
   -1.6700   14.3610   -2.0130 C   0  0  0  0  0  0  0  0  0  0  0  0
   -2.0870   12.5460   -4.7720 C   0  0  0  0  0  0  0  0  0  0  0  0
   -1.2370   14.3510   -0.6830 C   0  0  0  0  0  0  0  0  0  0  0  0
   -2.9510   14.8840   -2.2720 C   0  0  0  0  0  0  0  0  0  0  0  0
   -1.8370   11.1070   -4.9870 N   0  0  0  0  0  0  0  0  0  0  0  0
   -2.0280   14.8270    0.3520 C   0  0  0  0  0  0  0  0  0  0  0  0
   -3.7510   15.3700   -1.2070 C   0  0  0  0  0  0  0  0  0  0  0  0
   -0.0420   13.8970   -0.2170 O   0  0  0  0  0  0  0  0  0  0  0  0
   -3.2890   15.3390    0.1220 C   0  0  0  0  0  0  0  0  0  0  0  0
   -1.4100   14.7280    1.5760 O   0  0  0  0  0  0  0  0  0  0  0  0
   -0.0870   14.3820    1.1440 C   0  0  0  0  0  0  0  0  0  0  0  0
   -1.0050   10.7180   -6.1550 C   0  0  0  0  0  0  0  0  0  0  0  0
   -0.7420    9.1900   -6.2380 C   0  0  0  0  0  0  0  0  0  0  0  0
   -1.7400   11.1850   -7.4220 C   0  0  0  0  0  0  0  0  0  0  0  0
   -0.0240    8.7900   -7.5330 C   0  0  0  0  0  0  0  0  0  0  0  0
   -1.0360   10.7560   -8.7110 C   0  0  0  0  0  0  0  0  0  0  0  0
   -0.8040    9.2510   -8.7560 C   0  0  0  0  0  0  0  0  0  0  0  0
  1  2  1  0
  2  3  2  3
  1  4  1  0
  4  5  1  0
  4  6  1  0
  2  7  1  0
  3  8  1  0
  7  9  1  0
  7 10  2  0
  8 11  1  0
  9 12  2  0
 10 13  1  0
  9 14  1  0
 12 15  1  0
 13 15  2  0
 12 16  1  0
 14 17  1  0
 16 17  1  0
 11 18  1  0
 18 19  1  0
 18 20  1  0
 19 21  1  0
 20 22  1  0
 21 23  1  0
 22 23  1  0
M  END
