mac-x0354-mac-x0305
     RDKit          3D

 26 28  0  0  0  0  0  0  0  0999 V2000
    0.5660   11.0480   -8.4570 C   0  0  0  0  0  0  0  0  0  0  0  0
    0.8540   11.4950   -7.1130 N   0  0  0  0  0  0  0  0  0  0  0  0
    1.8370   12.3640   -6.8960 N   0  0  0  0  0  0  0  0  0  0  0  0
    0.2170   11.1200   -5.9780 C   0  0  0  0  0  0  0  0  0  0  0  0
    1.8520   12.5660   -5.6210 C   0  0  0  0  0  0  0  0  0  0  0  0
    0.8760   11.8250   -4.9750 C   0  0  0  0  0  0  0  0  0  0  0  0
   -0.8710   10.1760   -6.0100 C   0  0  0  0  0  0  0  0  0  0  0  0
    0.7460   11.8890   -3.5870 C   0  0  0  0  0  0  0  0  0  0  0  0
   -0.6140    8.8350   -6.3250 C   0  0  0  0  0  0  0  0  0  0  0  0
   -2.1700   10.5840   -5.7440 C   0  0  0  0  0  0  0  0  0  0  0  0
    1.0620   12.9390   -2.9640 N   0  0  0  0  0  0  0  0  0  0  0  0
    0.3450   10.7760   -2.9280 O   0  0  0  0  0  0  0  0  0  0  0  0
   -1.6510    7.9140   -6.3710 C   0  0  0  0  0  0  0  0  0  0  0  0
   -3.2090    9.6580   -5.7950 C   0  0  0  0  0  0  0  0  0  0  0  0
    1.0410   12.9040   -1.5600 C   0  0  0  0  0  0  0  0  0  0  0  0
   -2.9510    8.3300   -6.1040 C   0  0  0  0  0  0  0  0  0  0  0  0
    0.1340   13.7050   -0.8360 O   0  0  0  0  0  0  0  0  0  0  0  0
   -0.5660   14.5240   -1.6120 C   0  0  0  0  0  0  0  0  0  0  0  0
   -0.1890   14.9590   -2.6860 O   0  0  0  0  0  0  0  0  0  0  0  0
   -1.8760   14.8190   -0.9670 C   0  0  0  0  0  0  0  0  0  0  0  0
   -2.1050   14.8990    0.4300 C   0  0  0  0  0  0  0  0  0  0  0  0
   -2.8570   15.0150   -1.8940 N   0  0  0  0  0  0  0  0  0  0  0  0
   -1.1920   14.7220    1.4580 O   0  0  0  0  0  0  0  0  0  0  0  0
   -3.3960   15.1990    0.8460 C   0  0  0  0  0  0  0  0  0  0  0  0
   -4.0840   15.3040   -1.4400 C   0  0  0  0  0  0  0  0  0  0  0  0
   -4.3980   15.4060   -0.1020 C   0  0  0  0  0  0  0  0  0  0  0  0
  1  2  1  0
  2  3  1  0
  2  4  1  0
  3  5  2  0
  4  6  2  0
  5  6  1  0
  4  7  1  0
  6  8  1  0
  7  9  2  0
  7 10  1  0
  8 11  2  3
  8 12  1  0
  9 13  1  0
 10 14  2  0
 11 15  1  0
 13 16  2  0
 14 16  1  0
 15 17  1  0
 17 18  1  0
 18 19  2  0
 18 20  1  0
 20 21  2  0
 20 22  1  0
 21 23  1  0
 21 24  1  0
 22 25  2  0
 24 26  2  0
 25 26  1  0
M  END
