mac-x0373-mac-x0392
     RDKit          3D

 18 19  0  0  0  0  0  0  0  0999 V2000
    0.4140   13.1780   -1.3520 O   0  0  0  0  0  0  0  0  0  0  0  0
    0.1410   14.2430   -2.1340 C   0  0  0  0  0  0  0  0  0  0  0  0
    1.0410   15.0450   -2.3420 O   0  0  0  0  0  0  0  0  0  0  0  0
   -1.3060   14.3320   -2.6970 C   0  0  1  0  0  0  0  0  0  0  0  0
   -1.2720   15.4010   -3.6740 O   0  0  0  0  0  0  0  0  0  0  0  0
   -1.6700   13.0740   -3.4900 C   0  0  0  0  0  0  0  0  0  0  0  0
   -2.3490   14.7640   -1.6570 C   0  0  0  0  0  0  0  0  0  0  0  0
   -1.0540   12.8170   -4.7300 C   0  0  0  0  0  0  0  0  0  0  0  0
   -2.6160   12.1470   -3.0150 C   0  0  0  0  0  0  0  0  0  0  0  0
   -3.6030   15.2780   -2.0720 C   0  0  0  0  0  0  0  0  0  0  0  0
   -2.0900   14.6660   -0.2620 C   0  0  0  0  0  0  0  0  0  0  0  0
   -0.8580   14.1700    0.2680 N   0  0  0  0  0  0  0  0  0  0  0  0
   -1.3680   11.6790   -5.4700 C   0  0  0  0  0  0  0  0  0  0  0  0
   -2.9310   11.0080   -3.7580 C   0  0  0  0  0  0  0  0  0  0  0  0
   -4.5640   15.6790   -1.1470 C   0  0  0  0  0  0  0  0  0  0  0  0
   -3.0770   15.0770    0.6500 C   0  0  0  0  0  0  0  0  0  0  0  0
   -2.3090   10.7730   -4.9820 C   0  0  0  0  0  0  0  0  0  0  0  0
   -4.3000   15.5790    0.2110 C   0  0  0  0  0  0  0  0  0  0  0  0
  1  2  1  0
  2  3  2  0
  2  4  1  0
  4  5  1  6
  4  6  1  0
  4  7  1  0
  6  8  2  0
  6  9  1  0
  7 10  2  0
  7 11  1  0
 11 12  1  0
  8 13  1  0
  9 14  2  0
 10 15  1  0
 11 16  2  0
 13 17  2  0
 14 17  1  0
 15 18  2  0
 16 18  1  0
M  END
