mac-x0182-diamond-x0950_1_A
     RDKit          3D

 17 18  0  0  0  0  0  0  0  0999 V2000
    1.6930   11.7100   -7.0630 O   0  0  0  0  0  0  0  0  0  0  0  0
    0.4900   11.6130   -6.6350 C   0  0  0  0  0  0  0  0  0  0  0  0
   -0.2440   12.6280   -5.9800 N   0  0  0  0  0  0  0  0  0  0  0  0
   -0.3080   10.4160   -6.7030 C   0  0  0  0  0  0  0  0  0  0  0  0
   -1.3140   11.9070   -4.9280 S   0  0  0  0  0  0  0  0  0  0  0  0
   -1.3320   10.4140   -5.7980 C   0  0  0  0  0  0  0  0  0  0  0  0
   -0.1060    9.3440   -7.5750 C   0  0  0  0  0  0  0  0  0  0  0  0
   -1.7180   12.9610   -4.2120 O   0  0  0  0  0  0  0  0  0  0  0  0
   -0.5410   11.5180   -3.5270 N   0  0  0  0  0  0  0  0  0  0  0  0
   -2.1410    9.2510   -5.8110 C   0  0  0  0  0  0  0  0  0  0  0  0
   -0.9350    8.2810   -7.5150 C   0  0  0  0  0  0  0  0  0  0  0  0
    0.5740   11.8820   -3.2170 C   0  0  0  0  0  0  0  0  0  0  0  0
   -1.9640    8.2090   -6.6350 C   0  0  0  0  0  0  0  0  0  0  0  0
    1.5390   12.6750   -4.0340 C   0  0  2  0  0  0  0  0  0  0  0  0
    1.0380   11.5650   -1.9230 O   0  0  0  0  0  0  0  0  0  0  0  0
    1.0750   14.1150   -4.0420 C   0  0  0  0  0  0  0  0  0  0  0  0
    1.7120   12.1970   -5.2870 O   0  0  0  0  0  0  0  0  0  0  0  0
  1  2  2  0
  2  3  1  0
  2  4  1  0
  3  5  1  0
  4  6  2  0
  5  6  1  0
  4  7  1  0
  5  8  2  0
  5  9  1  0
  6 10  1  0
  7 11  2  0
  9 12  2  3
 10 13  2  0
 11 13  1  0
 12 14  1  0
 12 15  1  0
 14 16  1  6
 14 17  1  0
M  END
