mac-x0302-diamond-x0766_0_A
     RDKit          3D

 25 27  0  0  0  0  0  0  0  0999 V2000
    2.2230   13.8420   -1.2070 O   0  0  0  0  0  0  0  0  0  0  0  0
    0.5760   13.8700   -1.8940 S   0  0  0  0  0  0  0  0  0  0  0  0
    1.1860   15.3230   -2.0380 O   0  0  0  0  0  0  0  0  0  0  0  0
   -0.6730   14.4810   -1.0980 C   0  0  0  0  0  0  0  0  0  0  0  0
    0.5270   12.4450   -1.6610 O   0  0  0  0  0  0  0  0  0  0  0  0
    0.5280   13.8960   -3.4870 C   0  0  1  0  0  0  0  0  0  0  0  0
   -1.5020   15.0630   -2.1460 N   0  0  0  0  0  0  0  0  0  0  0  0
    1.7030   13.4280   -4.3050 C   0  0  0  0  0  0  0  0  0  0  0  0
   -0.5910   13.1810   -4.1750 C   0  0  2  0  0  0  0  0  0  0  0  0
   -2.8880   15.4150   -2.0580 C   0  0  0  0  0  0  0  0  0  0  0  0
   -0.3200   13.6590   -5.5650 C   0  0  0  0  0  0  0  0  0  0  0  0
    1.1630   13.7090   -5.6880 C   0  0  0  0  0  0  0  0  0  0  0  0
   -1.9640   13.5690   -3.6460 C   0  0  0  0  0  0  0  0  0  0  0  0
   -3.3940   15.9570   -3.0980 O   0  0  0  0  0  0  0  0  0  0  0  0
   -3.7460   15.2670   -0.8860 C   0  0  0  0  0  0  0  0  0  0  0  0
   -3.0430   13.6230   -4.4770 C   0  0  0  0  0  0  0  0  0  0  0  0
   -2.1930   13.8500   -2.3500 C   0  0  0  0  0  0  0  0  0  0  0  0
   -5.1040   15.1580   -1.0840 C   0  0  0  0  0  0  0  0  0  0  0  0
   -3.2480   15.2360    0.3840 C   0  0  0  0  0  0  0  0  0  0  0  0
   -3.4750   14.1400   -1.9750 C   0  0  0  0  0  0  0  0  0  0  0  0
   -4.3350   14.0310   -3.4430 S   0  0  0  0  0  0  0  0  0  0  0  0
   -5.9550   15.0100   -0.0170 C   0  0  0  0  0  0  0  0  0  0  0  0
   -4.0900   15.0940    1.4450 C   0  0  0  0  0  0  0  0  0  0  0  0
   -7.3380   14.8960   -0.2080 O   0  0  0  0  0  0  0  0  0  0  0  0
   -5.4460   14.9750    1.2710 C   0  0  0  0  0  0  0  0  0  0  0  0
  1  2  1  0
  2  3  2  0
  2  4  1  0
  2  5  1  0
  6  2  1  1
  4  7  1  0
  6  8  1  0
  6  9  1  0
  7 10  1  0
  9 11  1  0
  8 12  1  0
 11 12  1  0
  9 13  1  1
 10 14  2  0
 10 15  1  0
 13 16  2  0
 13 17  1  0
 15 18  2  0
 15 19  1  0
 17 20  2  0
 16 21  1  0
 20 21  1  0
 18 22  1  0
 19 23  2  0
 22 24  1  0
 22 25  2  0
 23 25  1  0
M  END
