mac-x0284-mac-x0224
     RDKit          3D

 12 12  0  0  0  0  0  0  0  0999 V2000
   -3.9080   15.4550    0.7820 C   0  0  0  0  0  0  0  0  0  0  0  0
   -5.2580   14.8300    1.0700 C   0  0  0  0  0  0  0  0  0  0  0  0
   -3.4290   15.1980   -0.6220 C   0  0  0  0  0  0  0  0  0  0  0  0
   -2.0940   14.8500   -0.8440 C   0  0  0  0  0  0  0  0  0  0  0  0
   -4.2950   15.3040   -1.7220 C   0  0  0  0  0  0  0  0  0  0  0  0
   -1.6140   14.6230   -2.1380 C   0  0  0  0  0  0  0  0  0  0  0  0
   -3.8230   15.0700   -3.0190 C   0  0  0  0  0  0  0  0  0  0  0  0
   -0.1820   14.2810   -2.2520 C   0  0  0  0  0  0  0  0  0  0  0  0
   -2.4810   14.7330   -3.2310 C   0  0  0  0  0  0  0  0  0  0  0  0
   -2.0400   14.5200   -4.5050 O   0  0  0  0  0  0  0  0  0  0  0  0
    0.5960   14.1960   -1.3210 O   0  0  0  0  0  0  0  0  0  0  0  0
    0.2230   14.0700   -3.5160 O   0  0  0  0  0  0  0  0  0  0  0  0
  1  2  1  0
  1  3  1  0
  3  4  2  0
  3  5  1  0
  4  6  1  0
  5  7  2  0
  6  8  1  0
  6  9  2  0
  7  9  1  0
  9 10  1  0
  8 11  2  0
  8 12  1  0
M  END
