mac-x0385-mac-x0180
     RDKit          3D

 15 15  0  0  0  0  0  0  0  0999 V2000
   -5.4390   15.4810   -0.7530 C   0  0  0  0  0  0  0  0  0  0  0  0
   -6.7220   14.7640   -0.3280 C   0  0  0  0  0  0  0  0  0  0  0  0
   -7.0520   14.5410    1.1310 C   0  0  0  0  0  0  0  0  0  0  0  0
   -4.0810   14.8760   -0.3560 C   0  0  2  0  0  0  0  0  0  0  0  0
   -7.4980   14.3600   -1.1890 O   0  0  0  0  0  0  0  0  0  0  0  0
   -3.3990   15.5130    0.8370 C   0  0  1  0  0  0  0  0  0  0  0  0
   -3.0980   14.8830   -1.5160 C   0  0  0  0  0  0  0  0  0  0  0  0
   -4.2960   15.5900    1.9600 N   0  0  0  0  0  0  0  0  0  0  0  0
   -2.2450   14.7560    1.2290 N   0  0  0  0  0  0  0  0  0  0  0  0
   -1.6850   14.8200   -1.1780 N   0  0  0  0  0  0  0  0  0  0  0  0
   -0.8070   14.8680   -2.2700 C   0  0  0  0  0  0  0  0  0  0  0  0
   -1.2370   14.4640    0.1830 C   0  0  1  0  0  0  0  0  0  0  0  0
    0.0270   15.1860    0.6740 C   0  0  0  0  0  0  0  0  0  0  0  0
   -1.0930   14.8440   -3.4630 O   0  0  0  0  0  0  0  0  0  0  0  0
    0.4900   14.9650   -1.9490 O   0  0  0  0  0  0  0  0  0  0  0  0
  1  2  1  0
  2  3  1  0
  4  1  1  6
  2  5  2  0
  4  6  1  0
  4  7  1  0
  6  8  1  1
  6  9  1  0
  7 10  1  0
 10 11  1  0
  9 12  1  0
 10 12  1  0
 12 13  1  1
 11 14  2  0
 11 15  1  0
M  END
