mac-x0337-mac-x0398
     RDKit          3D

 21 22  0  0  0  0  0  0  0  0999 V2000
   -6.5670    8.9560   -1.5720 C   0  0  0  0  0  0  0  0  0  0  0  0
   -5.7440   10.2000   -1.7160 C   0  0  0  0  0  0  0  0  0  0  0  0
   -6.0210   11.3220   -0.9960 C   0  0  0  0  0  0  0  0  0  0  0  0
   -4.7030   10.1980   -2.5900 C   0  0  0  0  0  0  0  0  0  0  0  0
   -3.9760   11.3310   -2.7370 C   0  0  0  0  0  0  0  0  0  0  0  0
   -5.2600   12.4510   -1.1690 C   0  0  0  0  0  0  0  0  0  0  0  0
   -4.2180   12.4630   -2.0680 C   0  0  0  0  0  0  0  0  0  0  0  0
   -3.2330   13.7780   -2.4290 S   0  0  0  0  0  0  0  0  0  0  0  0
   -3.2520   15.1390   -1.9230 C   0  0  0  0  0  0  0  0  0  0  0  0
   -2.1370   13.3160   -1.5350 O   0  0  0  0  0  0  0  0  0  0  0  0
   -4.1800   14.1700   -3.5810 N   0  0  0  0  0  0  0  0  0  0  0  0
   -3.5170   16.2100   -2.8200 O   0  0  0  0  0  0  0  0  0  0  0  0
   -1.9390   15.3410   -1.4470 O   0  0  0  0  0  0  0  0  0  0  0  0
   -4.1790   15.1020   -0.8540 C   0  0  0  0  0  0  0  0  0  0  0  0
   -5.5390   15.1390   -1.0280 C   0  0  0  0  0  0  0  0  0  0  0  0
   -3.6720   14.9890    0.4100 C   0  0  0  0  0  0  0  0  0  0  0  0
   -6.1080   15.2580   -2.2750 O   0  0  0  0  0  0  0  0  0  0  0  0
   -6.3440   15.0430    0.0570 C   0  0  0  0  0  0  0  0  0  0  0  0
   -4.4540   14.9010    1.4860 C   0  0  0  0  0  0  0  0  0  0  0  0
   -5.8230   14.9200    1.3290 C   0  0  0  0  0  0  0  0  0  0  0  0
   -6.6390   14.8150    2.4870 N   0  0  0  0  0  0  0  0  0  0  0  0
  1  2  1  0
  2  3  2  0
  2  4  1  0
  4  5  2  0
  3  6  1  0
  5  7  1  0
  6  7  2  0
  7  8  1  0
  8  9  1  0
  8 10  2  0
  8 11  1  0
  9 12  1  0
  9 13  1  0
  9 14  1  0
 14 15  2  0
 14 16  1  0
 15 17  1  0
 15 18  1  0
 16 19  2  0
 18 20  2  0
 19 20  1  0
 20 21  1  0
M  END
