mac-x0212-diamond-x0910_0_A
     RDKit          3D

 19 20  0  0  0  0  0  0  0  0999 V2000
   -6.8920   12.6000    1.4020 C   0  0  0  0  0  0  0  0  0  0  0  0
   -7.3090   14.3000    1.0500 S   0  0  0  0  0  0  0  0  0  0  0  0
   -8.1340   14.8070    2.1220 O   0  0  0  0  0  0  0  0  0  0  0  0
   -7.7100   14.4270   -0.3310 O   0  0  0  0  0  0  0  0  0  0  0  0
   -5.8230   15.0080    1.2790 N   0  0  0  0  0  0  0  0  0  0  0  0
   -4.9060   14.9250    0.2110 C   0  0  0  0  0  0  0  0  0  0  0  0
   -3.8020   14.1850    0.5210 C   0  0  0  0  0  0  0  0  0  0  0  0
   -5.0620   15.5170   -1.0520 C   0  0  0  0  0  0  0  0  0  0  0  0
   -2.8190   14.0250   -0.4110 C   0  0  0  0  0  0  0  0  0  0  0  0
   -4.0460   15.3520   -2.0140 C   0  0  0  0  0  0  0  0  0  0  0  0
   -2.9110   14.6020   -1.6720 C   0  0  0  0  0  0  0  0  0  0  0  0
   -1.7020   14.3520   -2.5080 C   0  0  0  0  0  0  0  0  0  0  0  0
   -1.4850   13.0150   -2.9250 O   0  0  0  0  0  0  0  0  0  0  0  0
   -1.5960   15.2400   -3.6200 O   0  0  0  0  0  0  0  0  0  0  0  0
   -0.9710   14.7020   -1.2010 C   0  0  0  0  0  0  0  0  0  0  0  0
   -1.6720   14.7370   -0.0340 N   0  0  0  0  0  0  0  0  0  0  0  0
    0.3470   15.0040   -1.0510 N   0  0  0  0  0  0  0  0  0  0  0  0
   -0.7550   15.0760    0.8550 N   0  0  0  0  0  0  0  0  0  0  0  0
    0.4320   15.2380    0.2490 C   0  0  0  0  0  0  0  0  0  0  0  0
  1  2  1  0
  2  3  2  0
  2  4  2  0
  2  5  1  0
  5  6  1  0
  6  7  2  0
  6  8  1  0
  7  9  1  0
  8 10  2  0
  9 11  2  0
 10 11  1  0
 11 12  1  0
 12 13  1  0
 12 14  1  0
 12 15  1  0
 15 16  2  0
 15 17  1  0
 16 18  1  0
 17 19  2  0
 18 19  1  0
M  END
