mac-x0379-diamond-x0742_0_A
     RDKit          3D

 20 22  0  0  0  0  0  0  0  0999 V2000
   -4.6460   15.7070   -0.3140 C   0  0  0  0  0  0  0  0  0  0  0  0
   -3.9760   14.5060   -0.9860 C   0  0  1  0  0  0  0  0  0  0  0  0
   -4.7070   14.6660   -2.2570 N   0  0  0  0  0  0  0  0  0  0  0  0
   -2.2460   14.5850   -0.7470 S   0  0  0  0  0  0  0  0  0  0  0  0
   -4.5230   13.5070   -0.1870 N   0  0  0  0  0  0  0  0  0  0  0  0
   -5.2570   12.3960   -0.6880 C   0  0  0  0  0  0  0  0  0  0  0  0
   -3.7240   15.3000   -2.8560 C   0  0  0  0  0  0  0  0  0  0  0  0
   -2.8220   14.2500   -2.4830 C   0  0  1  0  0  0  0  0  0  0  0  0
   -0.5320   14.5880   -1.0730 C   0  0  0  0  0  0  0  0  0  0  0  0
   -2.4770   14.7610    1.0140 C   0  0  2  0  0  0  0  0  0  0  0  0
   -4.6790   13.8650    1.1110 C   0  0  0  0  0  0  0  0  0  0  0  0
   -1.6150   14.5680   -3.3160 C   0  0  0  0  0  0  0  0  0  0  0  0
   -4.9630   11.8170   -1.7530 O   0  0  0  0  0  0  0  0  0  0  0  0
   -6.4110   11.8670    0.0810 C   0  0  0  0  0  0  0  0  0  0  0  0
   -1.3830   14.0820    1.5860 N   0  0  0  0  0  0  0  0  0  0  0  0
    0.2870   14.7730    0.0940 C   0  0  0  0  0  0  0  0  0  0  0  0
   -3.7020   14.4890    1.6870 C   0  0  0  0  0  0  0  0  0  0  0  0
   -1.5540   14.3540   -4.5270 O   0  0  0  0  0  0  0  0  0  0  0  0
   -0.5090   15.1370   -2.7240 O   0  0  0  0  0  0  0  0  0  0  0  0
   -0.1110   14.5350    1.2900 C   0  0  0  0  0  0  0  0  0  0  0  0
  2  1  1  1
  2  3  1  0
  2  4  1  0
  2  5  1  0
  5  6  1  0
  3  7  1  0
  4  8  1  0
  7  8  1  0
  4  9  2  0
  4 10  1  0
  5 11  1  0
  8 12  1  6
  6 13  2  0
  6 14  1  0
 10 15  1  0
  9 16  1  0
 10 17  1  1
 11 17  2  0
 12 18  2  0
 12 19  1  0
 15 20  1  0
 16 20  2  0
M  END
