mac-x0441-diamond-x0662_0_A
     RDKit          3D

 33 36  0  0  0  0  0  0  0  0999 V2000
   -0.5290   12.0290   -2.9530 O   0  0  0  0  0  0  0  0  0  0  0  0
    0.1020   12.8230   -3.8620 C   0  0  0  0  0  0  0  0  0  0  0  0
    0.1590   14.0250   -3.6830 O   0  0  0  0  0  0  0  0  0  0  0  0
    0.7200   12.0520   -4.9970 C   0  0  1  0  0  0  0  0  0  0  0  0
    0.7380   10.6120   -4.7090 C   0  0  0  0  0  0  0  0  0  0  0  0
    0.0740   11.7210   -6.2260 N   0  0  0  0  0  0  0  0  0  0  0  0
    0.8600   10.1440   -3.5960 O   0  0  0  0  0  0  0  0  0  0  0  0
    0.9000   11.7120   -7.2910 N   0  0  0  0  0  0  0  0  0  0  0  0
   -1.1890   11.3450   -6.5290 C   0  0  0  0  0  0  0  0  0  0  0  0
    0.5000    9.7480   -5.9400 C   0  0  0  0  0  0  0  0  0  0  0  0
    0.1450   11.2700   -8.3080 C   0  0  0  0  0  0  0  0  0  0  0  0
   -1.1760   11.0400   -7.8530 C   0  0  0  0  0  0  0  0  0  0  0  0
   -2.3860   11.2070   -5.6680 C   0  0  0  0  0  0  0  0  0  0  0  0
   -0.5050    8.7720   -5.9240 C   0  0  0  0  0  0  0  0  0  0  0  0
    1.2550    9.8980   -7.1130 C   0  0  0  0  0  0  0  0  0  0  0  0
    0.7320   11.0520   -9.6810 C   0  0  1  0  0  0  0  0  0  0  0  0
   -2.4010   10.5450   -8.5030 C   0  0  0  0  0  0  0  0  0  0  0  0
   -3.1990    9.9520   -6.0770 C   0  0  0  0  0  0  0  0  0  0  0  0
   -0.7420    7.9700   -7.0500 C   0  0  0  0  0  0  0  0  0  0  0  0
    1.0190    9.0920   -8.2260 C   0  0  0  0  0  0  0  0  0  0  0  0
    1.2140    9.7030   -9.7630 O   0  0  0  0  0  0  0  0  0  0  0  0
   -0.1730   11.2800  -10.6590 F   0  0  0  0  0  0  0  0  0  0  0  0
   -3.1020    9.5250   -7.5690 C   0  0  0  0  0  0  0  0  0  0  0  0
    0.0210    8.1320   -8.1980 C   0  0  0  0  0  0  0  0  0  0  0  0
    0.6490    8.9190  -10.8050 C   0  0  0  0  0  0  0  0  0  0  0  0
    1.5300    8.8980  -11.9530 N   0  0  0  0  0  0  0  0  0  0  0  0
    2.0920   10.0430  -12.0310 C   0  0  0  0  0  0  0  0  0  0  0  0
    3.0220   10.3310  -13.0820 C   0  0  0  0  0  0  0  0  0  0  0  0
    3.1580   11.5460  -13.7900 C   0  0  0  0  0  0  0  0  0  0  0  0
    3.8930    9.4030  -13.4980 N   0  0  0  0  0  0  0  0  0  0  0  0
    4.5760   10.0360  -14.4670 N   0  0  0  0  0  0  0  0  0  0  0  0
    4.1720   11.3230  -14.6810 C   0  0  0  0  0  0  0  0  0  0  0  0
    5.6270    9.3310  -15.1590 C   0  0  0  0  0  0  0  0  0  0  0  0
  1  2  1  0
  2  3  2  0
  4  2  1  1
  4  5  1  0
  4  6  1  0
  5  7  2  0
  6  8  1  0
  6  9  1  0
  5 10  1  0
  8 11  2  0
  9 12  2  0
 11 12  1  0
  9 13  1  0
 10 14  2  0
 10 15  1  0
 11 16  1  0
 12 17  1  0
 13 18  1  0
 14 19  1  0
 15 20  2  0
 16 21  1  0
 16 22  1  6
 17 23  1  0
 18 23  1  0
 19 24  2  0
 20 24  1  0
 21 25  1  0
 25 26  1  0
 26 27  2  3
 27 28  1  0
 28 29  1  0
 28 30  2  0
 30 31  1  0
 29 32  2  0
 31 32  1  0
 31 33  1  0
M  END
