mac-x0303-mac-x0555
     RDKit          3D

 13 14  0  0  0  0  0  0  0  0999 V2000
   -8.4560   12.9320    2.6830 N   0  0  0  0  0  0  0  0  0  0  0  0
   -8.5660   14.4960    2.0350 S   0  0  0  0  0  0  0  0  0  0  0  0
   -8.4150   15.3810    3.1620 O   0  0  0  0  0  0  0  0  0  0  0  0
   -9.7300   14.4810    1.1880 O   0  0  0  0  0  0  0  0  0  0  0  0
   -7.1450   14.6970    1.0080 C   0  0  0  0  0  0  0  0  0  0  0  0
   -7.2280   14.9110   -0.3440 N   0  0  0  0  0  0  0  0  0  0  0  0
   -5.8850   14.6740    1.3950 N   0  0  0  0  0  0  0  0  0  0  0  0
   -5.9560   15.0320   -0.8400 C   0  0  0  0  0  0  0  0  0  0  0  0
   -5.1380   14.8770    0.2710 C   0  0  0  0  0  0  0  0  0  0  0  0
   -5.4620   15.2530   -2.1170 C   0  0  0  0  0  0  0  0  0  0  0  0
   -3.7490   14.9420    0.1290 C   0  0  0  0  0  0  0  0  0  0  0  0
   -4.0730   15.3150   -2.2500 C   0  0  0  0  0  0  0  0  0  0  0  0
   -3.2250   15.1610   -1.1510 C   0  0  0  0  0  0  0  0  0  0  0  0
  2  1  1  0
  2  3  2  0
  2  4  2  0
  2  5  1  0
  5  6  1  0
  5  7  2  0
  6  8  1  0
  7  9  1  0
  8  9  2  0
  8 10  1  0
  9 11  1  0
 10 12  2  0
 11 13  2  0
 12 13  1  0
M  END
