mac-x0326-diamond-x0805_0_A
     RDKit          3D

 21 23  0  0  0  0  0  0  0  0999 V2000
   -4.5460   13.8700   -2.4680 Cl  0  0  0  0  0  0  0  0  0  0  0  0
   -2.8040   14.3280   -2.5420 C   0  0  2  0  0  0  0  0  0  0  0  0
   -1.9020   13.6000   -3.6770 C   0  0  2  0  0  0  0  0  0  0  0  0
   -2.2530   14.7970   -1.1470 C   0  0  1  0  0  0  0  0  0  0  0  0
   -0.9560   15.5820   -1.3620 C   0  0  0  0  0  0  0  0  0  0  0  0
   -0.8550   12.3860   -3.5230 C   0  0  2  0  0  0  0  0  0  0  0  0
   -1.3750   14.4910   -4.8460 C   0  0  0  0  0  0  0  0  0  0  0  0
   -3.2800   15.5700   -0.2790 C   0  0  0  0  0  0  0  0  0  0  0  0
    0.1870   12.2080   -2.3710 C   0  0  0  0  0  0  0  0  0  0  0  0
   -0.7900   15.6400   -2.8970 C   0  0  2  0  0  0  0  0  0  0  0  0
   -0.0210   12.3140   -4.8400 C   0  0  0  0  0  0  0  0  0  0  0  0
    0.1700   14.6320   -5.0070 C   0  0  0  0  0  0  0  0  0  0  0  0
   -0.4270   12.3540   -1.1140 O   0  0  0  0  0  0  0  0  0  0  0  0
    0.6390   10.8740   -2.3260 O   0  0  0  0  0  0  0  0  0  0  0  0
    1.3320   13.1920   -2.3420 C   0  0  0  0  0  0  0  0  0  0  0  0
    0.5850   15.3180   -3.5610 C   0  0  2  0  0  0  0  0  0  0  0  0
   -1.0710   16.9450   -3.6260 C   0  0  0  0  0  0  0  0  0  0  0  0
    0.8890   13.3950   -4.9440 O   0  0  0  0  0  0  0  0  0  0  0  0
    1.5210   14.4460   -2.8030 C   0  0  0  0  0  0  0  0  0  0  0  0
    1.1240   16.6650   -3.7760 N   0  0  0  0  0  0  0  0  0  0  0  0
    0.0680   17.4680   -4.0890 C   0  0  0  0  0  0  0  0  0  0  0  0
  2  1  1  1
  2  3  1  0
  2  4  1  0
  4  5  1  0
  3  6  1  0
  3  7  1  1
  4  8  1  6
  6  9  1  0
 10  5  1  1
  6 11  1  6
  7 12  1  0
  9 13  1  0
  9 14  1  0
  9 15  1  0
 10 16  1  0
 10 17  1  0
 11 18  1  0
 12 18  1  0
 15 19  2  0
 16 19  1  1
 16 20  1  0
 17 21  2  0
 20 21  1  0
M  END
