mac-x0375-diamond-x1018_0_A
     RDKit          3D

 24 26  0  0  0  0  0  0  0  0999 V2000
    2.0160   12.5460   -2.8110 O   0  0  0  0  0  0  0  0  0  0  0  0
    0.7330   12.3550   -3.3820 C   0  0  0  0  0  0  0  0  0  0  0  0
    0.4570   10.9730   -3.2180 O   0  0  0  0  0  0  0  0  0  0  0  0
    0.7310   12.7160   -4.9000 C   0  0  0  0  0  0  0  0  0  0  0  0
   -0.1990   13.2610   -2.5440 C   0  0  0  0  0  0  0  0  0  0  0  0
    0.7790   11.5560   -5.7400 O   0  0  0  0  0  0  0  0  0  0  0  0
   -1.4940   12.6250   -2.0210 C   0  0  0  0  0  0  0  0  0  0  0  0
   -2.7580   13.2040   -2.6860 C   0  0  0  0  0  0  0  0  0  0  0  0
   -0.3390   10.7850   -5.9400 C   0  0  0  0  0  0  0  0  0  0  0  0
   -0.3860    9.6410   -6.7420 C   0  0  0  0  0  0  0  0  0  0  0  0
   -1.4970   11.1950   -5.2800 C   0  0  0  0  0  0  0  0  0  0  0  0
   -3.2000   14.4780   -2.0810 N   0  0  0  0  0  0  0  0  0  0  0  0
   -1.5770    8.9200   -6.8760 C   0  0  0  0  0  0  0  0  0  0  0  0
   -2.6900   10.4760   -5.4140 C   0  0  0  0  0  0  0  0  0  0  0  0
   -2.9120   14.4790   -0.6470 N   0  0  0  0  0  0  0  0  0  0  0  0
   -4.6220   14.6380   -2.2370 N   0  0  0  0  0  0  0  0  0  0  0  0
   -2.7270    9.3370   -6.2130 C   0  0  0  0  0  0  0  0  0  0  0  0
   -5.0740   15.2030   -1.0510 N   0  0  0  0  0  0  0  0  0  0  0  0
   -4.0120   15.2460   -0.0420 C   0  0  1  0  0  0  0  0  0  0  0  0
   -6.4050   14.9920   -0.7820 N   0  0  0  0  0  0  0  0  0  0  0  0
   -4.4630   14.7330    1.2740 C   0  0  0  0  0  0  0  0  0  0  0  0
   -6.7110   14.6460    0.4280 C   0  0  0  0  0  0  0  0  0  0  0  0
   -5.7440   14.4440    1.5250 C   0  0  0  0  0  0  0  0  0  0  0  0
   -8.3920   14.4130    0.7460 Cl  0  0  0  0  0  0  0  0  0  0  0  0
  2  1  1  0
  2  3  1  0
  2  4  1  0
  2  5  1  0
  4  6  1  0
  5  7  1  0
  7  8  1  0
  6  9  1  0
  9 10  2  0
  9 11  1  0
  8 12  1  0
 10 13  1  0
 11 14  2  0
 12 15  1  0
 12 16  1  0
 13 17  2  0
 14 17  1  0
 16 18  1  0
 15 19  1  0
 18 19  1  0
 18 20  1  0
 19 21  1  1
 20 22  2  0
 21 23  2  0
 22 23  1  0
 22 24  1  0
M  END
