mac-x0496-mac-x0319
     RDKit          3D

 30 32  0  0  0  0  0  0  0  0999 V2000
   -9.6420   17.7260    4.6960 C   0  0  0  0  0  0  0  0  0  0  0  0
   -9.6480   16.7410    3.5910 C   0  0  0  0  0  0  0  0  0  0  0  0
  -10.3370   16.8830    2.4460 N   0  0  0  0  0  0  0  0  0  0  0  0
   -8.9310   15.5940    3.6690 N   0  0  0  0  0  0  0  0  0  0  0  0
  -10.0490   15.7330    1.7280 O   0  0  0  0  0  0  0  0  0  0  0  0
   -9.2040   15.0230    2.5200 C   0  0  0  0  0  0  0  0  0  0  0  0
   -8.7110   13.7430    2.0030 C   0  0  0  0  0  0  0  0  0  0  0  0
   -7.3200   13.9420    1.6730 N   0  0  0  0  0  0  0  0  0  0  0  0
   -6.9820   14.5640    0.5010 C   0  0  0  0  0  0  0  0  0  0  0  0
   -7.7970   14.9240   -0.3360 O   0  0  0  0  0  0  0  0  0  0  0  0
   -5.5430   14.7680    0.2790 C   0  0  0  0  0  0  0  0  0  0  0  0
   -4.7240   14.8600    1.4080 C   0  0  0  0  0  0  0  0  0  0  0  0
   -5.0180   14.8550   -0.9980 C   0  0  0  0  0  0  0  0  0  0  0  0
   -3.3560   15.0260    1.2740 C   0  0  0  0  0  0  0  0  0  0  0  0
   -3.6590   15.0220   -1.1300 C   0  0  0  0  0  0  0  0  0  0  0  0
   -3.0030   15.1100   -2.4270 C   0  0  0  0  0  0  0  0  0  0  0  0
   -2.8270   15.1020    0.0010 C   0  0  0  0  0  0  0  0  0  0  0  0
   -1.7610   15.0550   -2.3480 N   0  0  0  0  0  0  0  0  0  0  0  0
   -3.7540   15.2110   -3.5400 O   0  0  0  0  0  0  0  0  0  0  0  0
   -0.8270   15.0500   -3.3400 C   0  0  0  0  0  0  0  0  0  0  0  0
   -0.3380   16.1120   -4.1130 C   0  0  0  0  0  0  0  0  0  0  0  0
   -0.3550   13.8020   -3.4870 C   0  0  0  0  0  0  0  0  0  0  0  0
    0.6110   13.5230   -4.3700 C   0  0  0  0  0  0  0  0  0  0  0  0
    0.6580   15.8290   -5.0180 C   0  0  0  0  0  0  0  0  0  0  0  0
    1.0470   12.1290   -4.3900 C   0  0  0  0  0  0  0  0  0  0  0  0
    1.2060   16.8100   -5.7880 O   0  0  0  0  0  0  0  0  0  0  0  0
    1.1230   14.5230   -5.1460 C   0  0  0  0  0  0  0  0  0  0  0  0
    0.8770   11.6360   -2.9700 C   0  0  0  0  0  0  0  0  0  0  0  0
    0.4320   10.3650   -2.8950 O   0  0  0  0  0  0  0  0  0  0  0  0
    1.0940   12.2570   -1.9420 O   0  0  0  0  0  0  0  0  0  0  0  0
  1  2  1  0
  2  3  2  0
  2  4  1  0
  3  5  1  0
  4  6  2  0
  5  6  1  0
  6  7  1  0
  7  8  1  0
  8  9  1  0
  9 10  2  0
  9 11  1  0
 11 12  2  0
 11 13  1  0
 12 14  1  0
 13 15  2  0
 15 16  1  0
 14 17  2  0
 15 17  1  0
 16 18  2  3
 16 19  1  0
 18 20  1  0
 20 21  2  0
 20 22  1  0
 22 23  2  0
 21 24  1  0
 23 25  1  0
 24 26  1  0
 23 27  1  0
 24 27  2  0
 25 28  1  0
 28 29  1  0
 28 30  2  0
M  END
