mac-x0451-mac-x0180
     RDKit          3D

 17 18  0  0  0  0  0  0  0  0999 V2000
   -5.9030   14.6600    3.4870 N   0  0  0  0  0  0  0  0  0  0  0  0
   -5.2180   14.7340    2.3340 C   0  0  0  0  0  0  0  0  0  0  0  0
   -5.7890   14.9460    1.1970 N   0  0  0  0  0  0  0  0  0  0  0  0
   -3.5180   14.5530    2.2590 S   0  0  0  0  0  0  0  0  0  0  0  0
   -4.8440   14.9760    0.1880 C   0  0  0  0  0  0  0  0  0  0  0  0
   -3.5420   14.7800    0.5550 C   0  0  0  0  0  0  0  0  0  0  0  0
   -5.1780   15.1910   -1.1310 C   0  0  0  0  0  0  0  0  0  0  0  0
   -2.5090   14.7870   -0.3910 C   0  0  0  0  0  0  0  0  0  0  0  0
   -6.5600   15.3590   -1.2130 N   0  0  0  0  0  0  0  0  0  0  0  0
   -4.1800   15.2050   -2.1280 C   0  0  0  0  0  0  0  0  0  0  0  0
   -2.8330   14.9990   -1.7520 C   0  0  0  0  0  0  0  0  0  0  0  0
   -1.6880   14.9890   -2.7250 C   0  0  0  0  0  0  0  0  0  0  0  0
   -7.4660   14.4930   -0.6490 C   0  0  0  0  0  0  0  0  0  0  0  0
   -8.3140   15.0310    0.4810 C   0  0  0  0  0  0  0  0  0  0  0  0
   -7.6200   13.3500   -1.0140 O   0  0  0  0  0  0  0  0  0  0  0  0
   -1.7770   15.0290   -3.9400 O   0  0  0  0  0  0  0  0  0  0  0  0
   -0.4710   14.9380   -2.1370 O   0  0  0  0  0  0  0  0  0  0  0  0
  1  2  1  0
  2  3  2  0
  2  4  1  0
  3  5  1  0
  4  6  1  0
  5  6  2  0
  5  7  1  0
  6  8  1  0
  7  9  1  0
  7 10  2  0
  8 11  2  0
 10 11  1  0
 11 12  1  0
  9 13  1  0
 13 14  1  0
 13 15  2  0
 12 16  2  0
 12 17  1  0
M  END
