mac-x0510-mac-x0148
     RDKit          3D

 19 22  0  0  0  0  0  0  0  0999 V2000
   -5.6730   15.1630    1.4920 O   0  0  0  0  0  0  0  0  0  0  0  0
   -4.7150   15.0150    0.7550 C   0  0  0  0  0  0  0  0  0  0  0  0
   -4.8910   14.5880   -0.5180 N   0  0  0  0  0  0  0  0  0  0  0  0
   -3.4110   15.2440    1.1190 N   0  0  0  0  0  0  0  0  0  0  0  0
   -2.3670   14.9450    0.3020 C   0  0  0  0  0  0  0  0  0  0  0  0
   -3.9080   14.5090   -1.4430 C   0  0  0  0  0  0  0  0  0  0  0  0
   -4.1370   14.4440   -2.6360 O   0  0  0  0  0  0  0  0  0  0  0  0
   -2.5580   14.5480   -0.9440 C   0  0  0  0  0  0  0  0  0  0  0  0
   -1.0540   15.0760    0.6190 N   0  0  0  0  0  0  0  0  0  0  0  0
   -1.3120   14.2360   -1.7000 C   0  0  2  0  0  0  0  0  0  0  0  0
   -0.4350   14.7740   -0.5170 C   0  0  0  0  0  0  0  0  0  0  0  0
   -1.6410   14.7630   -3.1420 C   0  0  1  0  0  0  0  0  0  0  0  0
   -0.9530   12.7330   -1.7910 C   0  0  0  0  0  0  0  0  0  0  0  0
   -0.7810   15.5660   -4.0810 C   0  0  0  0  0  0  0  0  0  0  0  0
   -1.8950   13.5980   -4.1200 C   0  0  1  0  0  0  0  0  0  0  0  0
   -0.0960   12.2790   -2.9840 C   0  0  0  0  0  0  0  0  0  0  0  0
   -2.2460   14.3090   -5.3990 C   0  0  0  0  0  0  0  0  0  0  0  0
   -1.5830   15.5790   -5.2940 O   0  0  0  0  0  0  0  0  0  0  0  0
   -0.6650   12.7080   -4.3240 C   0  0  0  0  0  0  0  0  0  0  0  0
  1  2  2  0
  2  3  1  0
  2  4  1  0
  4  5  1  0
  3  6  1  0
  6  7  2  0
  5  8  2  0
  6  8  1  0
  5  9  1  0
  8 10  1  0
  9 11  2  0
 10 11  1  1
 10 12  1  0
 10 13  1  0
 12 14  1  6
 12 15  1  0
 13 16  1  0
 15 17  1  6
 14 18  1  0
 17 18  1  0
 15 19  1  0
 16 19  1  0
M  END
