mac-x0387-mac-x0415
     RDKit          3D

 26 29  0  0  0  0  0  0  0  0999 V2000
   -3.9920   15.5590    1.8180 N   0  0  0  0  0  0  0  0  0  0  0  0
   -2.8060   15.0460    1.2980 C   0  0  0  0  0  0  0  0  0  0  0  0
   -1.8880   14.7130    2.2180 N   0  0  0  0  0  0  0  0  0  0  0  0
   -2.5720   14.8770   -0.0650 C   0  0  0  0  0  0  0  0  0  0  0  0
   -1.3280   14.3470   -0.3750 C   0  0  0  0  0  0  0  0  0  0  0  0
   -0.7030   14.2180    1.8420 C   0  0  0  0  0  0  0  0  0  0  0  0
   -3.4620   15.1880   -1.1200 C   0  0  0  0  0  0  0  0  0  0  0  0
   -0.3980   14.0250    0.5790 C   0  0  0  0  0  0  0  0  0  0  0  0
   -0.9520   14.1130   -1.6210 C   0  0  0  0  0  0  0  0  0  0  0  0
   -3.0800   14.9560   -2.4490 C   0  0  0  0  0  0  0  0  0  0  0  0
    0.4260   13.5200   -1.6620 C   0  0  0  0  0  0  0  0  0  0  0  0
   -1.8100   14.4090   -2.7060 C   0  0  0  0  0  0  0  0  0  0  0  0
    0.8610   13.4420   -2.9490 N   0  0  0  0  0  0  0  0  0  0  0  0
    0.8580   12.4290   -3.6370 C   0  0  0  0  0  0  0  0  0  0  0  0
    0.4550   11.2300   -3.1670 O   0  0  0  0  0  0  0  0  0  0  0  0
    1.2470   12.6170   -5.0120 C   0  0  0  0  0  0  0  0  0  0  0  0
    0.9550   14.0760   -4.9970 C   0  0  0  0  0  0  0  0  0  0  0  0
    1.8460   15.1410   -4.5170 C   0  0  0  0  0  0  0  0  0  0  0  0
   -0.1250   14.8060   -5.2530 C   0  0  0  0  0  0  0  0  0  0  0  0
    1.4370   16.3740   -4.5320 N   0  0  0  0  0  0  0  0  0  0  0  0
    0.1700   16.2720   -5.1770 C   0  0  2  0  0  0  0  0  0  0  0  0
   -1.4550   14.4210   -5.6150 C   0  0  0  0  0  0  0  0  0  0  0  0
   -0.9390   17.1210   -4.7370 C   0  0  0  0  0  0  0  0  0  0  0  0
   -2.4430   15.3260   -5.4400 C   0  0  0  0  0  0  0  0  0  0  0  0
   -4.2010   14.9390   -5.9110 Br  0  0  0  0  0  0  0  0  0  0  0  0
   -2.1750   16.6470   -4.8790 C   0  0  0  0  0  0  0  0  0  0  0  0
  1  2  1  0
  2  3  2  0
  2  4  1  0
  4  5  2  0
  3  6  1  0
  4  7  1  0
  5  8  1  0
  6  8  2  0
  5  9  1  0
  7 10  2  0
  9 11  1  0
  9 12  2  0
 10 12  1  0
 11 13  1  0
 13 14  2  3
 14 15  1  0
 14 16  1  0
 16 17  1  0
 17 18  1  0
 17 19  2  0
 18 20  2  0
 19 21  1  0
 20 21  1  0
 19 22  1  0
 21 23  1  1
 22 24  2  0
 24 25  1  0
 23 26  2  0
 24 26  1  0
M  END
