mac-x0282-mac-x0402
     RDKit          3D

 14 16  0  0  0  0  0  0  0  0999 V2000
   -3.7870   14.3510   -3.0870 Cl  0  0  0  0  0  0  0  0  0  0  0  0
   -3.3880   15.1910   -1.5590 C   0  0  1  0  0  0  0  0  0  0  0  0
   -4.5490   15.4340   -0.5830 C   0  0  2  0  0  0  0  0  0  0  0  0
   -2.3510   14.4000   -0.7940 C   0  0  2  0  0  0  0  0  0  0  0  0
   -2.7390   14.5710    0.7100 C   0  0  2  0  0  0  0  0  0  0  0  0
   -4.0970   15.1790    0.8260 N   0  0  0  0  0  0  0  0  0  0  0  0
   -0.8930   14.5910   -1.1400 C   0  0  0  0  0  0  0  0  0  0  0  0
   -5.6700   14.4610   -0.7980 C   0  0  0  0  0  0  0  0  0  0  0  0
    0.0130   14.5980   -0.1700 C   0  0  0  0  0  0  0  0  0  0  0  0
   -1.6660   15.1380    1.5140 N   0  0  0  0  0  0  0  0  0  0  0  0
   -5.2680   14.5290    1.4250 C   0  0  2  0  0  0  0  0  0  0  0  0
   -6.3440   14.4590    0.4760 N   0  0  0  0  0  0  0  0  0  0  0  0
   -5.9460   15.1800    2.4860 N   0  0  0  0  0  0  0  0  0  0  0  0
   -0.4080   14.4260    1.2470 C   0  0  0  0  0  0  0  0  0  0  0  0
  2  1  1  6
  2  3  1  0
  2  4  1  0
  4  5  1  0
  3  6  1  0
  5  6  1  0
  4  7  1  1
  3  8  1  6
  7  9  2  0
  5 10  1  1
  6 11  1  0
  8 12  1  0
 11 12  1  0
 11 13  1  1
  9 14  1  0
 10 14  1  0
M  END
