mac-x0412-diamond-x0805_0_A
     RDKit          3D

 27 30  0  0  0  0  0  0  0  0999 V2000
   -8.6900   14.4200    0.8590 O   0  0  0  0  0  0  0  0  0  0  0  0
   -7.4870   14.5620    1.0060 C   0  0  0  0  0  0  0  0  0  0  0  0
   -6.9310   14.8720    2.2070 N   0  0  0  0  0  0  0  0  0  0  0  0
   -6.5810   14.4460   -0.1950 C   0  0  2  0  0  0  0  0  0  0  0  0
   -5.1290   14.7440    0.0150 C   0  0  0  0  0  0  0  0  0  0  0  0
   -5.6600   15.0990    2.2650 C   0  0  0  0  0  0  0  0  0  0  0  0
   -7.0830   15.4270   -1.1600 C   0  0  0  0  0  0  0  0  0  0  0  0
   -4.6440   15.0500    1.1760 C   0  0  0  0  0  0  0  0  0  0  0  0
   -4.4870   14.6460   -1.2750 C   0  0  0  0  0  0  0  0  0  0  0  0
   -6.3490   15.7600   -2.1560 C   0  0  0  0  0  0  0  0  0  0  0  0
   -5.1000   15.1540   -2.3050 C   0  0  0  0  0  0  0  0  0  0  0  0
   -3.4170   14.0050   -1.8790 C   0  0  0  0  0  0  0  0  0  0  0  0
   -3.2450   15.3590    1.4680 C   0  0  0  0  0  0  0  0  0  0  0  0
   -3.7730   12.7500   -2.3070 C   0  0  0  0  0  0  0  0  0  0  0  0
   -2.1860   14.5380   -2.0830 C   0  0  0  0  0  0  0  0  0  0  0  0
   -2.8780   11.9860   -2.9810 C   0  0  0  0  0  0  0  0  0  0  0  0
   -1.2650   13.7850   -2.7710 C   0  0  0  0  0  0  0  0  0  0  0  0
   -1.6210   12.5070   -3.2200 C   0  0  0  0  0  0  0  0  0  0  0  0
    0.0830   14.3730   -3.0090 C   0  0  1  0  0  0  0  0  0  0  0  0
    1.1100   13.2610   -3.0740 C   0  0  1  0  0  0  0  0  0  0  0  0
    0.2310   15.4040   -4.1110 C   0  0  0  0  0  0  0  0  0  0  0  0
    0.6690   12.0580   -2.3300 C   0  0  0  0  0  0  0  0  0  0  0  0
    1.5720   12.9940   -4.4700 C   0  0  0  0  0  0  0  0  0  0  0  0
    1.6490   15.4220   -4.5950 C   0  0  0  0  0  0  0  0  0  0  0  0
    0.4380   10.9240   -3.0050 O   0  0  0  0  0  0  0  0  0  0  0  0
    0.4880   12.1440   -1.1430 O   0  0  0  0  0  0  0  0  0  0  0  0
    2.1460   14.1460   -5.0100 O   0  0  0  0  0  0  0  0  0  0  0  0
  1  2  2  0
  2  3  1  0
  2  4  1  0
  4  5  1  0
  3  6  2  0
  4  7  1  6
  5  8  2  0
  6  8  1  0
  5  9  1  0
  7 10  2  0
  9 11  2  0
 10 11  1  0
  9 12  1  0
  8 13  1  0
 12 14  2  0
 12 15  1  0
 14 16  1  0
 15 17  2  0
 16 18  2  0
 17 18  1  0
 19 17  1  6
 19 20  1  0
 19 21  1  0
 20 22  1  6
 20 23  1  0
 21 24  1  0
 22 25  1  0
 22 26  2  0
 23 27  1  0
 24 27  1  0
M  END
