mac-x0301-diamond-x1012_0_A
     RDKit          3D

 24 26  0  0  0  0  0  0  0  0999 V2000
   -0.3310   15.7050   -2.9280 O   0  0  0  0  0  0  0  0  0  0  0  0
   -1.5120   14.9300   -3.0550 C   0  0  0  0  0  0  0  0  0  0  0  0
   -2.3510   15.5510   -3.9860 O   0  0  0  0  0  0  0  0  0  0  0  0
   -2.1060   14.9360   -1.6830 C   0  0  0  0  0  0  0  0  0  0  0  0
   -1.0400   13.7270   -3.7680 C   0  0  1  0  0  0  0  0  0  0  0  0
   -1.4490   14.7040   -0.4860 C   0  0  0  0  0  0  0  0  0  0  0  0
   -3.4720   15.2490   -1.6070 C   0  0  0  0  0  0  0  0  0  0  0  0
   -1.1590   14.2870   -5.1910 C   0  0  0  0  0  0  0  0  0  0  0  0
    0.4320   13.6510   -3.3580 C   0  0  1  0  0  0  0  0  0  0  0  0
    0.8430   12.3050   -2.8720 C   0  0  0  0  0  0  0  0  0  0  0  0
   -2.1130   14.7970    0.7230 C   0  0  0  0  0  0  0  0  0  0  0  0
   -4.1390   15.3330   -0.3870 C   0  0  0  0  0  0  0  0  0  0  0  0
   -0.1380   14.3910   -0.3180 O   0  0  0  0  0  0  0  0  0  0  0  0
    1.3790   14.2690   -4.3980 C   0  0  0  0  0  0  0  0  0  0  0  0
   -0.5500   15.6570   -5.1800 N   0  0  0  0  0  0  0  0  0  0  0  0
   -1.1890   16.9080   -4.9830 C   0  0  0  0  0  0  0  0  0  0  0  0
    0.1330   11.2690   -3.3630 O   0  0  0  0  0  0  0  0  0  0  0  0
    1.7260   12.1290   -2.0900 O   0  0  0  0  0  0  0  0  0  0  0  0
   -3.4510   15.1060    0.8020 C   0  0  0  0  0  0  0  0  0  0  0  0
   -1.3060   14.5620    1.7860 O   0  0  0  0  0  0  0  0  0  0  0  0
   -0.0490   14.4050    1.1210 C   0  0  0  0  0  0  0  0  0  0  0  0
    0.8870   15.6440   -4.8780 C   0  0  0  0  0  0  0  0  0  0  0  0
   -0.4080   18.0070   -5.1100 N   0  0  0  0  0  0  0  0  0  0  0  0
   -2.3820   17.1070   -4.7130 O   0  0  0  0  0  0  0  0  0  0  0  0
  2  1  1  0
  2  3  1  0
  2  4  1  0
  5  2  1  1
  4  6  1  0
  4  7  2  0
  5  8  1  0
  5  9  1  0
  9 10  1  6
  6 11  2  0
  7 12  1  0
  6 13  1  0
  9 14  1  0
  8 15  1  0
 15 16  1  0
 10 17  1  0
 10 18  2  0
 11 19  1  0
 12 19  2  0
 11 20  1  0
 13 21  1  0
 20 21  1  0
 14 22  1  0
 15 22  1  0
 16 23  1  0
 16 24  2  0
M  END
