mac-x0223-mac-x0510
     RDKit          3D

 26 28  0  0  0  0  0  0  0  0999 V2000
    1.2050   18.4900   -5.6900 C   0  0  0  0  0  0  0  0  0  0  0  0
    0.1150   18.1090   -4.8740 O   0  0  0  0  0  0  0  0  0  0  0  0
   -0.0740   16.7610   -4.8200 C   0  0  0  0  0  0  0  0  0  0  0  0
   -1.3540   16.2780   -5.0590 C   0  0  0  0  0  0  0  0  0  0  0  0
    0.9200   15.8050   -4.5430 C   0  0  0  0  0  0  0  0  0  0  0  0
   -2.4130   17.0090   -5.3110 O   0  0  0  0  0  0  0  0  0  0  0  0
   -1.6420   14.9270   -5.0400 C   0  0  0  0  0  0  0  0  0  0  0  0
    0.5970   14.4300   -4.5180 C   0  0  0  0  0  0  0  0  0  0  0  0
    1.5880   13.3490   -4.2050 C   0  0  0  0  0  0  0  0  0  0  0  0
   -3.2120   15.8920   -4.9650 C   0  0  0  0  0  0  0  0  0  0  0  0
   -0.6830   14.0100   -4.7730 C   0  0  0  0  0  0  0  0  0  0  0  0
    1.0310   12.4290   -3.1360 C   0  0  0  0  0  0  0  0  0  0  0  0
   -2.7460   15.5810   -3.5070 C   0  0  0  0  0  0  0  0  0  0  0  0
    0.3990   11.4080   -3.3870 O   0  0  0  0  0  0  0  0  0  0  0  0
    1.2510   12.8060   -1.8600 O   0  0  0  0  0  0  0  0  0  0  0  0
   -3.8350   15.5650   -2.5650 N   0  0  0  0  0  0  0  0  0  0  0  0
   -3.7990   15.4380   -1.2850 C   0  0  0  0  0  0  0  0  0  0  0  0
   -2.6320   15.2770   -0.4450 C   0  0  0  0  0  0  0  0  0  0  0  0
   -4.9550   15.4410   -0.5690 N   0  0  0  0  0  0  0  0  0  0  0  0
   -5.1040   15.0630    0.7310 C   0  0  0  0  0  0  0  0  0  0  0  0
   -2.7500   15.0140    0.9000 C   0  0  0  0  0  0  0  0  0  0  0  0
   -1.2750   15.3200   -0.6450 N   0  0  0  0  0  0  0  0  0  0  0  0
   -6.2200   14.8750    1.2040 O   0  0  0  0  0  0  0  0  0  0  0  0
   -3.9760   14.9030    1.4710 N   0  0  0  0  0  0  0  0  0  0  0  0
   -1.5600   14.8900    1.5370 N   0  0  0  0  0  0  0  0  0  0  0  0
   -0.6730   15.0800    0.5750 C   0  0  0  0  0  0  0  0  0  0  0  0
  1  2  1  0
  2  3  1  0
  3  4  2  0
  3  5  1  0
  4  6  1  0
  4  7  1  0
  5  8  2  0
  8  9  1  0
  6 10  1  0
  7 11  2  0
  8 11  1  0
  9 12  1  0
 10 13  1  0
 12 14  2  0
 12 15  1  0
 13 16  1  0
 16 17  2  3
 17 18  1  0
 17 19  1  0
 19 20  1  0
 18 21  2  0
 18 22  1  0
 20 23  2  0
 20 24  1  0
 21 24  1  0
 21 25  1  0
 22 26  1  0
 25 26  2  0
M  END
