mac-x1493-mac-x0124
     RDKit          3D

 22 25  0  0  0  0  0  0  0  0999 V2000
   -3.2570   15.0390   -2.2010 C   0  0  0  0  0  0  0  0  0  0  0  0
   -2.9150   14.4630   -3.2950 N   0  0  0  0  0  0  0  0  0  0  0  0
   -1.5160   14.7840   -3.4800 C   0  0  2  0  0  0  0  0  0  0  0  0
   -4.5600   14.9390   -1.5860 C   0  0  0  0  0  0  0  0  0  0  0  0
   -4.6330   14.8690   -0.2080 C   0  0  0  0  0  0  0  0  0  0  0  0
   -5.7220   14.9090   -2.3210 C   0  0  0  0  0  0  0  0  0  0  0  0
   -5.8650   14.7710    0.4030 C   0  0  0  0  0  0  0  0  0  0  0  0
   -6.9480   14.8120   -1.7570 N   0  0  0  0  0  0  0  0  0  0  0  0
   -0.6830   13.7480   -2.8390 N   0  0  0  0  0  0  0  0  0  0  0  0
   -1.2910   16.0460   -2.6360 C   0  0  0  0  0  0  0  0  0  0  0  0
   -7.0140   14.7460   -0.4140 C   0  0  0  0  0  0  0  0  0  0  0  0
   -5.9710   14.7000    1.7960 C   0  0  0  0  0  0  0  0  0  0  0  0
   -0.5400   15.5150   -1.4140 C   0  0  2  0  0  0  0  0  0  0  0  0
   -0.8750   14.0760   -1.4300 C   0  0  2  0  0  0  0  0  0  0  0  0
   -8.2450   14.6480    0.2130 C   0  0  0  0  0  0  0  0  0  0  0  0
   -7.2190   14.6040    2.3980 C   0  0  0  0  0  0  0  0  0  0  0  0
   -0.8150   15.9830    0.0020 C   0  0  1  0  0  0  0  0  0  0  0  0
   -0.0630   13.3350   -0.5240 N   0  0  0  0  0  0  0  0  0  0  0  0
   -8.3610   14.5780    1.6040 C   0  0  0  0  0  0  0  0  0  0  0  0
   -2.1970   15.8400    0.4010 N   0  0  0  0  0  0  0  0  0  0  0  0
   -0.1520   15.1750    0.9860 N   0  0  0  0  0  0  0  0  0  0  0  0
   -0.3590   13.7580    0.8400 C   0  0  0  0  0  0  0  0  0  0  0  0
  1  2  2  3
  3  2  1  1
  1  4  1  0
  4  5  2  0
  4  6  1  0
  5  7  1  0
  6  8  2  0
  3  9  1  0
  3 10  1  0
  7 11  2  0
  8 11  1  0
  7 12  1  0
 13 10  1  6
 14  9  1  6
 13 14  1  0
 11 15  1  0
 12 16  2  0
 13 17  1  0
 14 18  1  0
 15 19  2  0
 16 19  1  0
 17 20  1  1
 17 21  1  0
 18 22  1  0
 21 22  1  0
M  END
