mac-x0277-mac-x0159
     RDKit          3D

 23 25  0  0  0  0  0  0  0  0999 V2000
   -1.1070   18.2680   -5.9540 Cl  0  0  0  0  0  0  0  0  0  0  0  0
   -0.4110   16.8600   -5.2360 C   0  0  0  0  0  0  0  0  0  0  0  0
   -1.1880   15.8840   -4.6540 C   0  0  0  0  0  0  0  0  0  0  0  0
    0.9590   16.7080   -5.2380 C   0  0  0  0  0  0  0  0  0  0  0  0
   -2.8980   16.0700   -4.6790 Cl  0  0  0  0  0  0  0  0  0  0  0  0
   -0.6170   14.7500   -4.0450 C   0  0  0  0  0  0  0  0  0  0  0  0
    1.5360   15.5710   -4.6630 C   0  0  0  0  0  0  0  0  0  0  0  0
   -1.5540   13.8010   -3.3710 C   0  0  0  0  0  0  0  0  0  0  0  0
    0.7850   14.5680   -4.0660 C   0  0  0  0  0  0  0  0  0  0  0  0
    1.5450   13.3650   -3.4840 C   0  0  0  0  0  0  0  0  0  0  0  0
   -2.0530   14.5310   -2.1490 N   0  0  0  0  0  0  0  0  0  0  0  0
    0.8310   12.4360   -2.5160 C   0  0  0  0  0  0  0  0  0  0  0  0
   -3.5070   14.6250   -2.1200 C   0  0  0  0  0  0  0  0  0  0  0  0
   -1.4760   14.0180   -0.8950 C   0  0  2  0  0  0  0  0  0  0  0  0
    0.3010   11.3170   -3.0660 O   0  0  0  0  0  0  0  0  0  0  0  0
    0.7270   12.6550   -1.3170 O   0  0  0  0  0  0  0  0  0  0  0  0
   -3.8910   15.4640   -1.0000 N   0  0  0  0  0  0  0  0  0  0  0  0
   -2.2150   14.3380    0.4210 C   0  0  2  0  0  0  0  0  0  0  0  0
   -0.1750   14.6770   -0.6970 N   0  0  0  0  0  0  0  0  0  0  0  0
   -3.6940   14.7190    0.2120 C   0  0  1  0  0  0  0  0  0  0  0  0
   -1.3590   15.3010    1.1400 N   0  0  0  0  0  0  0  0  0  0  0  0
   -0.0550   14.8320    0.7400 C   0  0  0  0  0  0  0  0  0  0  0  0
   -4.2320   15.5500    1.2720 N   0  0  0  0  0  0  0  0  0  0  0  0
  1  2  1  0
  2  3  2  0
  2  4  1  0
  3  5  1  0
  3  6  1  0
  4  7  2  0
  6  8  1  0
  6  9  2  0
  7  9  1  0
  9 10  1  0
  8 11  1  0
 10 12  1  0
 11 13  1  0
 11 14  1  0
 12 15  1  0
 12 16  2  0
 13 17  1  0
 14 18  1  0
 14 19  1  1
 17 20  1  0
 18 20  1  0
 18 21  1  6
 19 22  1  0
 21 22  1  0
 20 23  1  1
M  END
