mac-x0231-mac-x0433
     RDKit          3D

 26 28  0  0  0  0  0  0  0  0999 V2000
    0.5400   10.8970   -3.2490 O   0  0  0  0  0  0  0  0  0  0  0  0
    1.2420   12.0280   -3.0360 C   0  0  0  0  0  0  0  0  0  0  0  0
    1.3700   12.4590   -1.9100 O   0  0  0  0  0  0  0  0  0  0  0  0
    1.7820   12.6380   -4.2940 C   0  0  0  0  0  0  0  0  0  0  0  0
    1.2280   14.0200   -4.4550 C   0  0  0  0  0  0  0  0  0  0  0  0
   -0.2150   14.1560   -4.7020 C   0  0  0  0  0  0  0  0  0  0  0  0
    2.0320   15.0210   -4.3350 N   0  0  0  0  0  0  0  0  0  0  0  0
   -0.7450   15.4380   -4.7890 C   0  0  0  0  0  0  0  0  0  0  0  0
    1.5170   16.2670   -4.4640 N   0  0  0  0  0  0  0  0  0  0  0  0
   -1.0390   13.0450   -4.8370 C   0  0  0  0  0  0  0  0  0  0  0  0
    0.1880   16.5840   -4.6460 C   0  0  0  0  0  0  0  0  0  0  0  0
   -2.1370   15.6100   -5.0060 C   0  0  0  0  0  0  0  0  0  0  0  0
   -2.4010   13.2040   -5.0480 C   0  0  0  0  0  0  0  0  0  0  0  0
   -0.1970   17.7490   -4.6880 O   0  0  0  0  0  0  0  0  0  0  0  0
   -2.9690   14.4690   -5.1300 C   0  0  0  0  0  0  0  0  0  0  0  0
   -4.4620   14.5250   -5.3460 C   0  0  0  0  0  0  0  0  0  0  0  0
   -5.2620   14.8400   -4.0660 C   0  0  0  0  0  0  0  0  0  0  0  0
   -5.4690   13.8010   -3.1280 N   0  0  0  0  0  0  0  0  0  0  0  0
   -5.4650   14.2450   -1.8050 C   0  0  0  0  0  0  0  0  0  0  0  0
   -4.3200   14.6110   -1.2130 N   0  0  0  0  0  0  0  0  0  0  0  0
   -6.6540   14.2550   -1.1930 N   0  0  0  0  0  0  0  0  0  0  0  0
   -4.3790   14.9880    0.0780 C   0  0  0  0  0  0  0  0  0  0  0  0
   -6.6840   14.6320    0.0980 C   0  0  0  0  0  0  0  0  0  0  0  0
   -3.1190   15.3910    0.7680 C   0  0  0  0  0  0  0  0  0  0  0  0
   -8.0100   14.6270    0.7980 C   0  0  0  0  0  0  0  0  0  0  0  0
   -5.5510   15.0070    0.7800 C   0  0  0  0  0  0  0  0  0  0  0  0
  1  2  1  0
  2  3  2  0
  2  4  1  0
  4  5  1  0
  5  6  1  0
  5  7  2  0
  6  8  2  0
  7  9  1  0
  6 10  1  0
  8 11  1  0
  9 11  1  0
  8 12  1  0
 10 13  2  0
 11 14  2  0
 12 15  2  0
 13 15  1  0
 15 16  1  0
 16 17  1  0
 17 18  1  0
 18 19  1  0
 19 20  2  0
 19 21  1  0
 20 22  1  0
 21 23  2  0
 22 24  1  0
 23 25  1  0
 22 26  2  0
 23 26  1  0
M  END
