mac-x0392-diamond-x0681_0_A
     RDKit          3D

 21 23  0  0  0  0  0  0  0  0999 V2000
    0.7110   13.7880   -0.5050 N   0  0  0  0  0  0  0  0  0  0  0  0
   -0.5190   14.1570    0.0450 C   0  0  0  0  0  0  0  0  0  0  0  0
   -0.7090   14.2230    1.4090 C   0  0  0  0  0  0  0  0  0  0  0  0
   -1.6240   14.4790   -0.7320 C   0  0  0  0  0  0  0  0  0  0  0  0
   -1.5510   14.4400   -2.1800 C   0  0  0  0  0  0  0  0  0  0  0  0
   -2.8290   14.8430   -0.1690 C   0  0  0  0  0  0  0  0  0  0  0  0
   -1.8690   14.5690    1.9910 N   0  0  0  0  0  0  0  0  0  0  0  0
   -2.5580   14.7360   -2.9080 N   0  0  0  0  0  0  0  0  0  0  0  0
   -0.3460   14.0700   -2.6740 O   0  0  0  0  0  0  0  0  0  0  0  0
   -2.9000   14.8740    1.1990 C   0  0  0  0  0  0  0  0  0  0  0  0
   -3.8980   15.1890   -2.4660 C   0  0  1  0  0  0  0  0  0  0  0  0
   -4.7750   14.6980   -3.5140 N   0  0  0  0  0  0  0  0  0  0  0  0
   -4.5910   14.8690   -1.0660 C   0  0  1  0  0  0  0  0  0  0  0  0
   -5.1680   13.4920   -0.8420 C   0  0  0  0  0  0  0  0  0  0  0  0
   -4.0480   15.5460    0.2360 C   0  0  0  0  0  0  0  0  0  0  0  0
   -5.7940   13.2340    0.3370 N   0  0  0  0  0  0  0  0  0  0  0  0
   -4.5730   14.9220    1.5610 C   0  0  0  0  0  0  0  0  0  0  0  0
   -5.1980   12.4320   -1.6230 N   0  0  0  0  0  0  0  0  0  0  0  0
   -5.9060   14.2070    1.3810 C   0  0  0  0  0  0  0  0  0  0  0  0
   -6.2520   11.9570    0.3240 C   0  0  0  0  0  0  0  0  0  0  0  0
   -5.8710   11.4760   -0.9050 C   0  0  0  0  0  0  0  0  0  0  0  0
  1  2  1  0
  2  3  2  0
  2  4  1  0
  4  5  1  0
  4  6  2  0
  3  7  1  0
  5  8  2  3
  5  9  1  0
  6 10  1  0
  7 10  2  0
  8 11  1  0
 11 12  1  6
 11 13  1  0
 13 14  1  0
 13 15  1  1
 14 16  1  0
 15 17  1  0
 14 18  2  0
 16 19  1  0
 17 19  1  0
 16 20  1  0
 18 21  1  0
 20 21  2  0
M  END
