mac-x0587-mac-x0302
     RDKit          3D

 25 27  0  0  0  0  0  0  0  0999 V2000
    0.3980   15.8320   -4.5090 C   0  0  0  0  0  0  0  0  0  0  0  0
   -0.2620   14.6010   -3.8240 C   0  0  2  0  0  0  0  0  0  0  0  0
   -0.6490   13.3900   -5.1740 S   0  0  0  0  0  0  0  0  0  0  0  0
   -1.5310   15.0760   -2.9630 C   0  0  1  0  0  0  0  0  0  0  0  0
    0.8830   13.9650   -3.0300 C   0  0  0  0  0  0  0  0  0  0  0  0
   -0.7620   11.8760   -4.1690 C   0  0  0  0  0  0  0  0  0  0  0  0
    1.1490   12.7250   -2.7380 N   0  0  0  0  0  0  0  0  0  0  0  0
   -2.7660   15.1900   -3.7750 N   0  0  0  0  0  0  0  0  0  0  0  0
    1.8020   14.8170   -2.5630 O   0  0  0  0  0  0  0  0  0  0  0  0
   -1.8520   14.4220   -1.7030 N   0  0  0  0  0  0  0  0  0  0  0  0
    0.3470   11.6710   -3.1390 C   0  0  0  0  0  0  0  0  0  0  0  0
   -3.9410   15.3060   -3.2250 C   0  0  0  0  0  0  0  0  0  0  0  0
   -3.1010   13.6980   -1.5020 C   0  0  0  0  0  0  0  0  0  0  0  0
   -1.2870   14.7460   -0.4930 C   0  0  0  0  0  0  0  0  0  0  0  0
    0.5200   10.5510   -2.6650 O   0  0  0  0  0  0  0  0  0  0  0  0
   -0.2160   15.2720   -0.2940 O   0  0  0  0  0  0  0  0  0  0  0  0
   -3.3640   13.8100   -0.0090 C   0  0  0  0  0  0  0  0  0  0  0  0
   -2.1500   14.3730    0.5250 N   0  0  0  0  0  0  0  0  0  0  0  0
   -4.3300   15.3540   -1.7760 C   0  0  0  0  0  0  0  0  0  0  0  0
   -5.6370   14.9380   -1.5130 C   0  0  0  0  0  0  0  0  0  0  0  0
   -3.5110   15.7680   -0.7040 C   0  0  0  0  0  0  0  0  0  0  0  0
   -6.1190   14.9180   -0.2140 C   0  0  0  0  0  0  0  0  0  0  0  0
   -4.0130   15.7380    0.6110 C   0  0  0  0  0  0  0  0  0  0  0  0
   -7.4100   14.5030   -0.0350 O   0  0  0  0  0  0  0  0  0  0  0  0
   -5.3170   15.3040    0.8580 C   0  0  0  0  0  0  0  0  0  0  0  0
  2  1  1  6
  2  3  1  0
  2  4  1  0
  2  5  1  0
  3  6  1  0
  5  7  2  0
  4  8  1  6
  5  9  1  0
  4 10  1  0
  6 11  1  0
  7 11  1  0
  8 12  2  3
 10 13  1  0
 10 14  1  0
 11 15  2  0
 14 16  2  0
 13 17  1  0
 14 18  1  0
 17 18  1  0
 12 19  1  0
 19 20  2  0
 19 21  1  0
 20 22  1  0
 21 23  2  0
 22 24  1  0
 22 25  2  0
 23 25  1  0
M  END
