mac-x0357-mac-x0303
     RDKit          3D

 26 28  0  0  0  0  0  0  0  0999 V2000
    2.5210   13.0160   -4.6380 C   0  0  0  0  0  0  0  0  0  0  0  0
    1.1450   12.4410   -4.8600 C   0  0  0  0  0  0  0  0  0  0  0  0
    0.8140   11.8380   -6.0810 C   0  0  0  0  0  0  0  0  0  0  0  0
    0.1530   12.4780   -3.8670 C   0  0  0  0  0  0  0  0  0  0  0  0
    1.7630   11.7750   -7.0450 O   0  0  0  0  0  0  0  0  0  0  0  0
    0.4080   13.0780   -2.5400 C   0  0  0  0  0  0  0  0  0  0  0  0
   -1.1210   11.9310   -4.1070 C   0  0  0  0  0  0  0  0  0  0  0  0
   -0.4460   11.2970   -6.3270 C   0  0  0  0  0  0  0  0  0  0  0  0
   -0.2860   13.9860   -1.9910 N   0  0  0  0  0  0  0  0  0  0  0  0
    1.4850   12.5390   -1.9750 O   0  0  0  0  0  0  0  0  0  0  0  0
   -1.4200   11.3430   -5.3370 C   0  0  0  0  0  0  0  0  0  0  0  0
   -1.4510   14.5620   -2.6090 C   0  0  0  0  0  0  0  0  0  0  0  0
   -1.9720   15.6420   -1.6750 C   0  0  0  0  0  0  0  0  0  0  0  0
   -3.4090   15.4200   -1.3240 C   0  0  0  0  0  0  0  0  0  0  0  0
   -4.3240   15.4110   -2.3730 C   0  0  0  0  0  0  0  0  0  0  0  0
   -3.8430   15.2250   -0.0020 C   0  0  0  0  0  0  0  0  0  0  0  0
   -5.2130   15.0220    0.2200 C   0  0  0  0  0  0  0  0  0  0  0  0
   -5.6860   15.2150   -2.1710 C   0  0  0  0  0  0  0  0  0  0  0  0
   -6.0880   15.0250   -0.8600 C   0  0  0  0  0  0  0  0  0  0  0  0
   -5.8950   14.8100    1.3890 N   0  0  0  0  0  0  0  0  0  0  0  0
   -7.1650   14.6880    1.0360 C   0  0  0  0  0  0  0  0  0  0  0  0
   -7.3230   14.8090   -0.3150 N   0  0  0  0  0  0  0  0  0  0  0  0
   -8.5150   14.4180    2.1350 S   0  0  0  0  0  0  0  0  0  0  0  0
   -8.3350   12.8540    2.7230 N   0  0  0  0  0  0  0  0  0  0  0  0
   -8.3130   15.3590    3.2080 O   0  0  0  0  0  0  0  0  0  0  0  0
   -9.6910   14.4570    1.3010 O   0  0  0  0  0  0  0  0  0  0  0  0
  1  2  1  0
  2  3  2  0
  2  4  1  0
  3  5  1  0
  4  6  1  0
  4  7  2  0
  3  8  1  0
  6  9  2  3
  6 10  1  0
  7 11  1  0
  8 11  2  0
  9 12  1  0
 12 13  1  0
 13 14  1  0
 14 15  2  0
 14 16  1  0
 16 17  2  0
 15 18  1  0
 17 19  1  0
 18 19  2  0
 17 20  1  0
 20 21  2  0
 19 22  1  0
 21 22  1  0
 21 23  1  0
 23 24  1  0
 23 25  2  0
 23 26  2  0
M  END
