mac-x0188-mac-x0263
     RDKit          3D

 24 26  0  0  0  0  0  0  0  0999 V2000
    1.0530   13.0520   -5.2520 C   0  0  0  0  0  0  0  0  0  0  0  0
   -0.1750   13.4870   -4.5440 C   0  0  0  0  0  0  0  0  0  0  0  0
   -1.3390   13.4740   -5.2430 O   0  0  0  0  0  0  0  0  0  0  0  0
   -0.4280   13.9310   -3.2650 C   0  0  0  0  0  0  0  0  0  0  0  0
    0.5620   14.0810   -2.2440 C   0  0  0  0  0  0  0  0  0  0  0  0
   -2.3780   13.9110   -4.4340 N   0  0  0  0  0  0  0  0  0  0  0  0
   -1.8290   14.1900   -3.2340 C   0  0  0  0  0  0  0  0  0  0  0  0
    1.0500   15.1340   -1.8870 O   0  0  0  0  0  0  0  0  0  0  0  0
    0.9540   12.9380   -1.6530 O   0  0  0  0  0  0  0  0  0  0  0  0
   -2.6020   14.7200   -2.0290 C   0  0  1  0  0  0  0  0  0  0  0  0
   -3.8260   15.5560   -2.3360 C   0  0  0  0  0  0  0  0  0  0  0  0
   -2.8070   13.8190   -0.8390 C   0  0  0  0  0  0  0  0  0  0  0  0
   -4.9810   15.5080   -1.6210 C   0  0  0  0  0  0  0  0  0  0  0  0
   -3.9610   13.7620   -0.1370 C   0  0  0  0  0  0  0  0  0  0  0  0
   -5.2090   14.5630   -0.4580 C   0  0  2  0  0  0  0  0  0  0  0  0
   -6.3470   13.6640   -0.9730 C   0  0  0  0  0  0  0  0  0  0  0  0
   -5.8200   15.0570    0.8170 N   0  0  0  0  0  0  0  0  0  0  0  0
   -7.0500   14.2800    1.0320 C   0  0  2  0  0  0  0  0  0  0  0  0
   -7.5500   14.1710   -0.3070 N   0  0  0  0  0  0  0  0  0  0  0  0
   -8.1020   14.7510    2.0850 C   0  0  0  0  0  0  0  0  0  0  0  0
   -9.3890   15.3910    1.5260 C   0  0  0  0  0  0  0  0  0  0  0  0
  -10.5220   15.4000    2.5360 C   0  0  0  0  0  0  0  0  0  0  0  0
  -11.2810   14.2890    2.4650 O   0  0  0  0  0  0  0  0  0  0  0  0
  -10.8030   16.2690    3.3470 O   0  0  0  0  0  0  0  0  0  0  0  0
  1  2  1  0
  2  3  1  0
  2  4  2  0
  4  5  1  0
  3  6  1  0
  4  7  1  0
  6  7  2  0
  5  8  2  0
  5  9  1  0
 10  7  1  6
 10 11  1  0
 10 12  1  0
 11 13  2  0
 12 14  2  0
 15 13  1  6
 14 15  1  0
 15 16  1  0
 15 17  1  0
 17 18  1  0
 16 19  1  0
 18 19  1  0
 18 20  1  1
 20 21  1  0
 21 22  1  0
 22 23  1  0
 22 24  2  0
M  END
