mac-x0224-diamond-x0628_0_A
     RDKit          3D

 23 24  0  0  0  0  0  0  0  0999 V2000
   -5.1560   14.9320    1.3400 C   0  0  0  0  0  0  0  0  0  0  0  0
   -3.3650   15.2110    1.3870 S   0  0  0  0  0  0  0  0  0  0  0  0
   -3.0510   15.1190   -0.3480 C   0  0  0  0  0  0  0  0  0  0  0  0
   -1.8090   14.6550   -0.7610 C   0  0  0  0  0  0  0  0  0  0  0  0
   -4.0110   15.5000   -1.2940 C   0  0  0  0  0  0  0  0  0  0  0  0
   -1.5390   14.5820   -2.1190 C   0  0  0  0  0  0  0  0  0  0  0  0
   -3.7220   15.4190   -2.6530 C   0  0  0  0  0  0  0  0  0  0  0  0
   -0.2750   14.0790   -2.6090 C   0  0  0  0  0  0  0  0  0  0  0  0
   -2.4870   14.9650   -3.0630 C   0  0  0  0  0  0  0  0  0  0  0  0
   -2.2740   14.9170   -4.4150 O   0  0  0  0  0  0  0  0  0  0  0  0
   -0.1890   12.8270   -2.5170 N   0  0  0  0  0  0  0  0  0  0  0  0
    0.6280   14.9150   -3.1460 O   0  0  0  0  0  0  0  0  0  0  0  0
    0.8350   12.1320   -3.0110 C   0  0  0  0  0  0  0  0  0  0  0  0
    1.0190   11.0170   -2.5970 O   0  0  0  0  0  0  0  0  0  0  0  0
    1.6000   12.8280   -4.1130 C   0  0  0  0  0  0  0  0  0  0  0  0
    0.6660   13.0660   -5.3050 C   0  0  0  0  0  0  0  0  0  0  0  0
   -0.1780   11.9110   -5.6080 N   0  0  0  0  0  0  0  0  0  0  0  0
    0.2330   11.0390   -6.5450 N   0  0  0  0  0  0  0  0  0  0  0  0
   -1.3940   11.5240   -5.0840 C   0  0  0  0  0  0  0  0  0  0  0  0
   -2.1470   12.2430   -4.0370 C   0  0  0  0  0  0  0  0  0  0  0  0
   -1.7730   10.4040   -5.6700 N   0  0  0  0  0  0  0  0  0  0  0  0
   -0.7580   10.1430   -6.5480 C   0  0  0  0  0  0  0  0  0  0  0  0
   -0.7570    8.9600   -7.4300 C   0  0  0  0  0  0  0  0  0  0  0  0
  1  2  1  0
  2  3  1  0
  3  4  2  0
  3  5  1  0
  4  6  1  0
  5  7  2  0
  6  8  1  0
  6  9  2  0
  7  9  1  0
  9 10  1  0
  8 11  2  3
  8 12  1  0
 11 13  1  0
 13 14  2  0
 13 15  1  0
 15 16  1  0
 16 17  1  0
 17 18  1  0
 17 19  1  0
 19 20  1  0
 19 21  2  0
 18 22  2  0
 21 22  1  0
 22 23  1  0
M  END
