mac-x0360-mac-x0223
     RDKit          3D

 27 28  0  0  0  0  0  0  0  0999 V2000
   -7.6540   11.6200    1.7220 Cl  0  0  0  0  0  0  0  0  0  0  0  0
   -6.4440   11.8800    0.5240 C   0  0  0  0  0  0  0  0  0  0  0  0
   -6.2610   10.9370   -0.4830 C   0  0  0  0  0  0  0  0  0  0  0  0
   -5.6610   13.0290    0.5720 C   0  0  0  0  0  0  0  0  0  0  0  0
   -4.6830   13.2360   -0.4050 C   0  0  0  0  0  0  0  0  0  0  0  0
   -5.2800   11.1460   -1.4480 C   0  0  0  0  0  0  0  0  0  0  0  0
   -5.0530    9.9680   -2.6850 Cl  0  0  0  0  0  0  0  0  0  0  0  0
   -3.6960   14.7130   -0.3510 S   0  0  0  0  0  0  0  0  0  0  0  0
   -4.4840   12.2910   -1.4230 C   0  0  0  0  0  0  0  0  0  0  0  0
   -2.4800   14.4090   -1.4720 N   0  0  0  0  0  0  0  0  0  0  0  0
   -4.5140   15.8030   -0.8250 O   0  0  0  0  0  0  0  0  0  0  0  0
   -3.0200   14.7820    0.9240 O   0  0  0  0  0  0  0  0  0  0  0  0
   -1.3110   13.6270   -1.0190 C   0  0  0  0  0  0  0  0  0  0  0  0
    0.0050   14.2380   -1.5320 C   0  0  0  0  0  0  0  0  0  0  0  0
    0.9210   13.2420   -2.0350 O   0  0  0  0  0  0  0  0  0  0  0  0
    0.5200   12.5260   -3.1260 C   0  0  0  0  0  0  0  0  0  0  0  0
    0.7550   13.2880   -4.4200 C   0  0  0  0  0  0  0  0  0  0  0  0
    0.0360   11.4000   -3.0600 O   0  0  0  0  0  0  0  0  0  0  0  0
   -0.0870   14.5360   -4.5490 C   0  0  0  0  0  0  0  0  0  0  0  0
   -1.4940   14.4620   -4.5960 C   0  0  0  0  0  0  0  0  0  0  0  0
    0.5280   15.7970   -4.6240 C   0  0  0  0  0  0  0  0  0  0  0  0
   -0.2400   16.9530   -4.7370 C   0  0  0  0  0  0  0  0  0  0  0  0
   -2.2630   15.6230   -4.7130 C   0  0  0  0  0  0  0  0  0  0  0  0
    0.2320   18.2220   -4.8120 O   0  0  0  0  0  0  0  0  0  0  0  0
   -1.6230   16.8570   -4.7790 C   0  0  0  0  0  0  0  0  0  0  0  0
    1.2400   18.4320   -5.7640 C   0  0  0  0  0  0  0  0  0  0  0  0
   -2.3230   18.0280   -4.8800 O   0  0  0  0  0  0  0  0  0  0  0  0
  1  2  1  0
  2  3  2  0
  2  4  1  0
  4  5  2  0
  3  6  1  0
  6  7  1  0
  5  8  1  0
  5  9  1  0
  6  9  2  0
  8 10  1  0
  8 11  2  0
  8 12  2  0
 10 13  1  0
 13 14  1  0
 14 15  1  0
 15 16  1  0
 16 17  1  0
 16 18  2  0
 17 19  1  0
 19 20  2  0
 19 21  1  0
 21 22  2  0
 20 23  1  0
 22 24  1  0
 22 25  1  0
 23 25  2  0
 24 26  1  0
 25 27  1  0
M  END
