mac-x0451-diamond-x0592_0_A
     RDKit          3D

 14 16  0  0  0  0  0  0  0  0999 V2000
   -6.7840   14.4960    2.7770 N   0  0  0  0  0  0  0  0  0  0  0  0
   -8.0830   14.4760    2.0510 C   0  0  0  0  0  0  0  0  0  0  0  0
   -7.7910   14.7080    0.5330 C   0  0  0  0  0  0  0  0  0  0  0  0
   -5.8570   14.6090    1.6830 C   0  0  0  0  0  0  0  0  0  0  0  0
   -6.3430   14.7330    0.4720 N   0  0  0  0  0  0  0  0  0  0  0  0
   -4.2440   14.6300    1.4610 S   0  0  0  0  0  0  0  0  0  0  0  0
   -5.4010   14.8550   -0.6050 C   0  0  0  0  0  0  0  0  0  0  0  0
   -4.0630   14.8080   -0.1750 C   0  0  0  0  0  0  0  0  0  0  0  0
   -2.9400   14.5070    2.4930 N   0  0  0  0  0  0  0  0  0  0  0  0
   -5.6140   15.0050   -1.9750 C   0  0  0  0  0  0  0  0  0  0  0  0
   -2.9400   14.8910   -0.9720 C   0  0  0  0  0  0  0  0  0  0  0  0
   -4.4840   15.0910   -2.8190 C   0  0  0  0  0  0  0  0  0  0  0  0
   -3.1810   15.0330   -2.3150 C   0  0  0  0  0  0  0  0  0  0  0  0
   -2.1370   15.1160   -3.1530 F   0  0  0  0  0  0  0  0  0  0  0  0
  1  2  1  0
  2  3  1  0
  1  4  1  0
  3  5  1  0
  4  5  1  0
  4  6  2  0
  5  7  1  0
  6  8  1  0
  7  8  2  0
  6  9  1  0
  7 10  1  0
  8 11  1  0
 10 12  2  0
 11 13  2  0
 12 13  1  0
 13 14  1  0
M  END
