mac-x0115-mac-x0178
     RDKit          3D

 27 29  0  0  0  0  0  0  0  0999 V2000
    0.4260   18.5020   -6.7030 C   0  0  0  0  0  0  0  0  0  0  0  0
   -0.0100   17.6760   -5.4960 C   0  0  0  0  0  0  0  0  0  0  0  0
    0.6950   18.2540   -4.2840 C   0  0  0  0  0  0  0  0  0  0  0  0
    0.5350   16.2160   -5.4800 C   0  0  0  0  0  0  0  0  0  0  0  0
   -1.5640   17.8070   -5.4090 C   0  0  0  0  0  0  0  0  0  0  0  0
    1.0220   15.7090   -4.1160 C   0  0  0  0  0  0  0  0  0  0  0  0
   -2.3030   17.3560   -6.5580 O   0  0  0  0  0  0  0  0  0  0  0  0
   -0.0390   16.0200   -3.0320 C   0  0  0  0  0  0  0  0  0  0  0  0
   -0.4700   14.8960   -2.1660 N   0  0  0  0  0  0  0  0  0  0  0  0
    0.4290   14.2250   -1.3740 C   0  0  0  0  0  0  0  0  0  0  0  0
   -1.6730   15.0990   -1.5470 C   0  0  0  0  0  0  0  0  0  0  0  0
    1.3910   12.9350   -1.9820 S   0  0  0  0  0  0  0  0  0  0  0  0
    0.5040   14.6010   -0.0640 N   0  0  0  0  0  0  0  0  0  0  0  0
   -1.6440   15.6390   -0.1690 C   0  0  2  0  0  0  0  0  0  0  0  0
   -2.9080   14.8950   -1.9900 C   0  0  0  0  0  0  0  0  0  0  0  0
    0.7640   12.8070   -3.5670 C   0  0  0  0  0  0  0  0  0  0  0  0
   -0.6580   14.8550    0.6720 C   0  0  0  0  0  0  0  0  0  0  0  0
   -3.0680   15.6910    0.2420 N   0  0  0  0  0  0  0  0  0  0  0  0
   -3.6950   15.2910   -0.8260 C   0  0  0  0  0  0  0  0  0  0  0  0
   -0.8280   14.4770    1.8330 O   0  0  0  0  0  0  0  0  0  0  0  0
    1.2440   11.8850   -4.3900 O   0  0  0  0  0  0  0  0  0  0  0  0
   -0.3100   13.6250   -4.1130 C   0  0  0  0  0  0  0  0  0  0  0  0
   -0.4520   14.9260   -3.6530 C   0  0  0  0  0  0  0  0  0  0  0  0
   -1.1910   13.1400   -5.0740 C   0  0  0  0  0  0  0  0  0  0  0  0
   -1.4720   15.7480   -4.1370 C   0  0  0  0  0  0  0  0  0  0  0  0
   -2.2090   13.9640   -5.5620 C   0  0  0  0  0  0  0  0  0  0  0  0
   -2.3490   15.2660   -5.0920 C   0  0  0  0  0  0  0  0  0  0  0  0
  2  1  1  0
  2  3  1  0
  2  4  1  0
  2  5  1  0
  4  6  1  0
  5  7  1  0
  6  8  1  0
  8  9  1  0
  9 10  1  0
  9 11  1  0
 10 12  2  0
 10 13  1  0
 11 14  1  0
 11 15  2  0
 12 16  2  0
 13 17  1  0
 14 17  1  0
 14 18  1  1
 15 19  1  0
 18 19  2  0
 17 20  2  0
 16 21  1  0
 16 22  1  0
 22 23  2  0
 22 24  1  0
 23 25  1  0
 24 26  2  0
 25 27  2  0
 26 27  1  0
M  END
