mac-x0303-mac-x0301
     RDKit          3D

 23 26  0  0  0  0  0  0  0  0999 V2000
   -8.1250   13.0180    2.9900 N   0  0  0  0  0  0  0  0  0  0  0  0
   -8.2030   14.5910    2.3980 S   0  0  0  0  0  0  0  0  0  0  0  0
   -7.9030   15.5010    3.4670 O   0  0  0  0  0  0  0  0  0  0  0  0
   -9.4050   14.7170    1.6010 O   0  0  0  0  0  0  0  0  0  0  0  0
   -6.8800   14.7240    1.2310 C   0  0  0  0  0  0  0  0  0  0  0  0
   -7.1990   14.9210   -0.0570 N   0  0  0  0  0  0  0  0  0  0  0  0
   -5.5460   14.6610    1.4030 N   0  0  0  0  0  0  0  0  0  0  0  0
   -6.0590   14.9710   -0.7680 C   0  0  0  0  0  0  0  0  0  0  0  0
   -4.9780   14.8000    0.1340 C   0  0  0  0  0  0  0  0  0  0  0  0
   -5.9650   15.1450   -2.1170 C   0  0  0  0  0  0  0  0  0  0  0  0
   -3.6100   14.7930   -0.4260 C   0  0  0  0  0  0  0  0  0  0  0  0
   -4.7140   15.1240   -2.6260 C   0  0  0  0  0  0  0  0  0  0  0  0
   -3.6000   14.9500   -1.8490 C   0  0  0  0  0  0  0  0  0  0  0  0
   -2.2710   14.6480    0.1630 C   0  0  0  0  0  0  0  0  0  0  0  0
   -1.1330   14.6280   -0.6860 C   0  0  0  0  0  0  0  0  0  0  0  0
   -2.4650   14.9300   -2.5970 C   0  0  0  0  0  0  0  0  0  0  0  0
   -1.8460   14.5040    1.4890 O   0  0  0  0  0  0  0  0  0  0  0  0
   -1.2350   14.7580   -2.0620 C   0  0  0  0  0  0  0  0  0  0  0  0
    0.0280   14.4640   -0.0140 O   0  0  0  0  0  0  0  0  0  0  0  0
   -0.4370   14.2090    1.3120 C   0  0  0  0  0  0  0  0  0  0  0  0
   -0.1940   14.7380   -3.1020 C   0  0  0  0  0  0  0  0  0  0  0  0
    1.0690   14.8120   -2.6850 O   0  0  0  0  0  0  0  0  0  0  0  0
   -0.4560   14.6440   -4.2920 O   0  0  0  0  0  0  0  0  0  0  0  0
  2  1  1  0
  2  3  2  0
  2  4  2  0
  2  5  1  0
  5  6  1  0
  5  7  2  0
  6  8  1  0
  7  9  1  0
  8  9  2  0
  8 10  1  0
  9 11  1  0
 10 12  2  0
 11 13  2  0
 12 13  1  0
 11 14  1  0
 14 15  2  0
 13 16  1  0
 14 17  1  0
 15 18  1  0
 16 18  2  0
 15 19  1  0
 17 20  1  0
 19 20  1  0
 18 21  1  0
 21 22  1  0
 21 23  2  0
M  END
