mac-x0576-diamond-x0950_1_A
     RDKit          3D

 21 22  0  0  0  0  0  0  0  0999 V2000
    0.1260   14.2170    2.0240 N   0  0  0  0  0  0  0  0  0  0  0  0
   -0.8350   14.2050    0.9730 C   0  0  1  0  0  0  0  0  0  0  0  0
   -2.0670   14.5160    1.6460 N   0  0  0  0  0  0  0  0  0  0  0  0
   -0.5320   14.9040   -0.2220 N   0  0  0  0  0  0  0  0  0  0  0  0
   -1.5350   15.0870   -1.1300 C   0  0  0  0  0  0  0  0  0  0  0  0
   -3.1200   14.4610    0.6550 C   0  0  2  0  0  0  0  0  0  0  0  0
   -1.4880   15.0020   -2.4090 N   0  0  0  0  0  0  0  0  0  0  0  0
   -2.9010   15.4220   -0.5110 C   0  0  2  0  0  0  0  0  0  0  0  0
   -4.3230   14.8120    1.3290 N   0  0  0  0  0  0  0  0  0  0  0  0
   -0.2930   14.6670   -3.1850 C   0  0  0  0  0  0  0  0  0  0  0  0
   -5.4560   15.0160    0.6000 C   0  0  0  0  0  0  0  0  0  0  0  0
   -3.9970   15.2050   -1.5020 N   0  0  0  0  0  0  0  0  0  0  0  0
   -6.5580   14.7900    1.0930 O   0  0  0  0  0  0  0  0  0  0  0  0
    0.9880   14.4600   -2.3410 C   0  0  0  0  0  0  0  0  0  0  0  0
   -5.2960   15.5350   -0.8460 C   0  0  0  0  0  0  0  0  0  0  0  0
    1.4060   13.0700   -2.2730 O   0  0  0  0  0  0  0  0  0  0  0  0
    0.8860   12.1700   -3.1620 C   0  0  0  0  0  0  0  0  0  0  0  0
    1.3500   12.4640   -4.6000 C   0  0  2  0  0  0  0  0  0  0  0  0
    0.1580   11.2260   -2.8570 O   0  0  0  0  0  0  0  0  0  0  0  0
    1.0810   13.8770   -5.0630 C   0  0  0  0  0  0  0  0  0  0  0  0
    0.7210   11.5960   -5.5410 O   0  0  0  0  0  0  0  0  0  0  0  0
  2  1  1  1
  2  3  1  0
  2  4  1  0
  4  5  1  0
  6  3  1  1
  5  7  2  3
  5  8  1  0
  6  8  1  0
  6  9  1  0
  7 10  1  0
  9 11  1  0
  8 12  1  6
 11 13  2  0
 10 14  1  0
 11 15  1  0
 12 15  1  0
 14 16  1  0
 16 17  1  0
 17 18  1  0
 17 19  2  0
 18 20  1  6
 18 21  1  0
M  END
