mac-x0124-diamond-x0910_0_A
     RDKit          3D

 12 13  0  0  0  0  0  0  0  0999 V2000
   -0.5520   15.2460   -3.6290 C   0  0  0  0  0  0  0  0  0  0  0  0
   -1.5980   15.5230   -2.6580 N   0  0  0  0  0  0  0  0  0  0  0  0
   -2.9600   15.3980   -2.8760 C   0  0  0  0  0  0  0  0  0  0  0  0
   -1.4010   14.9660   -1.3180 C   0  0  2  0  0  0  0  0  0  0  0  0
   -3.6330   15.4140   -1.7010 C   0  0  0  0  0  0  0  0  0  0  0  0
   -2.6080   15.5770   -0.5940 C   0  0  1  0  0  0  0  0  0  0  0  0
   -0.1740   14.9940   -0.5640 N   0  0  0  0  0  0  0  0  0  0  0  0
    0.2600   13.6140   -0.5110 N   0  0  0  0  0  0  0  0  0  0  0  0
   -2.8210   14.8550    0.7400 C   0  0  2  0  0  0  0  0  0  0  0  0
   -0.4420   15.4050    0.8090 C   0  0  0  0  0  0  0  0  0  0  0  0
   -3.7320   15.4560    1.7030 N   0  0  0  0  0  0  0  0  0  0  0  0
   -1.5580   14.6690    1.4330 N   0  0  0  0  0  0  0  0  0  0  0  0
  1  2  1  0
  2  3  1  0
  4  2  1  6
  3  5  2  0
  4  6  1  0
  6  5  1  6
  4  7  1  0
  7  8  1  0
  6  9  1  0
  7 10  1  0
  9 11  1  1
  9 12  1  0
 10 12  1  0
M  END
