mac-x0365-mac-x0385
     RDKit          3D

 20 21  0  0  0  0  0  0  0  0999 V2000
   -1.0560   14.6430   -2.3060 O   0  0  0  0  0  0  0  0  0  0  0  0
   -1.9840   14.6720   -3.2890 C   0  0  0  0  0  0  0  0  0  0  0  0
   -1.6540   14.6140   -4.4470 O   0  0  0  0  0  0  0  0  0  0  0  0
   -3.3860   14.7820   -2.8000 C   0  0  0  0  0  0  0  0  0  0  0  0
   -4.4860   14.4790   -3.6080 C   0  0  0  0  0  0  0  0  0  0  0  0
   -3.6580   15.1870   -1.5370 C   0  0  0  0  0  0  0  0  0  0  0  0
   -5.7920   14.6020   -3.0910 C   0  0  0  0  0  0  0  0  0  0  0  0
   -4.9540   15.2890   -1.0810 C   0  0  0  0  0  0  0  0  0  0  0  0
   -6.8470   14.3220   -3.8410 F   0  0  0  0  0  0  0  0  0  0  0  0
   -4.9830   15.7140    0.2180 C   0  0  0  0  0  0  0  0  0  0  0  0
   -6.0260   15.0100   -1.8080 C   0  0  0  0  0  0  0  0  0  0  0  0
   -7.2790   15.1380   -1.2660 O   0  0  0  0  0  0  0  0  0  0  0  0
   -3.6520   15.3080    0.4970 C   0  0  0  0  0  0  0  0  0  0  0  0
   -3.2210   15.2500    1.7080 C   0  0  0  0  0  0  0  0  0  0  0  0
   -2.7980   14.9710   -0.5310 C   0  0  0  0  0  0  0  0  0  0  0  0
   -4.1040   15.6060    2.6980 N   0  0  0  0  0  0  0  0  0  0  0  0
   -1.9930   14.8780    1.9740 N   0  0  0  0  0  0  0  0  0  0  0  0
   -1.5500   14.6020   -0.3410 N   0  0  0  0  0  0  0  0  0  0  0  0
   -1.2290   14.5880    0.9330 C   0  0  0  0  0  0  0  0  0  0  0  0
    0.1110   14.2220    1.2390 C   0  0  0  0  0  0  0  0  0  0  0  0
  1  2  1  0
  2  3  2  0
  2  4  1  0
  4  5  2  0
  4  6  1  0
  5  7  1  0
  6  8  2  0
  7  9  1  0
  8 10  1  0
  7 11  2  0
  8 11  1  0
 11 12  1  0
 10 13  1  0
 13 14  2  0
 13 15  1  0
 14 16  1  0
 14 17  1  0
 15 18  2  0
 17 19  2  0
 18 19  1  0
 19 20  1  0
M  END
