mac-x0277-diamond-x0722_0_A
     RDKit          3D

 26 27  0  0  0  0  0  0  0  0999 V2000
   -1.3260   18.3830   -5.1220 Cl  0  0  0  0  0  0  0  0  0  0  0  0
   -0.5540   16.8500   -4.9540 C   0  0  0  0  0  0  0  0  0  0  0  0
   -1.2530   15.6510   -5.0870 C   0  0  0  0  0  0  0  0  0  0  0  0
    0.8110   16.8280   -4.6800 C   0  0  0  0  0  0  0  0  0  0  0  0
   -2.9500   15.6110   -5.4180 Cl  0  0  0  0  0  0  0  0  0  0  0  0
   -0.5750   14.4340   -4.9580 C   0  0  0  0  0  0  0  0  0  0  0  0
    1.4810   15.6090   -4.5460 C   0  0  0  0  0  0  0  0  0  0  0  0
    0.8040   14.4060   -4.6890 C   0  0  0  0  0  0  0  0  0  0  0  0
    1.5310   13.0870   -4.5460 C   0  0  0  0  0  0  0  0  0  0  0  0
    0.7890   12.4200   -3.4540 C   0  0  0  0  0  0  0  0  0  0  0  0
    0.3560   11.1710   -3.7060 O   0  0  0  0  0  0  0  0  0  0  0  0
    0.5750   13.0760   -2.4090 N   0  0  0  0  0  0  0  0  0  0  0  0
   -0.2450   12.4770   -1.4250 C   0  0  0  0  0  0  0  0  0  0  0  0
   -1.6580   12.8510   -1.8330 C   0  0  0  0  0  0  0  0  0  0  0  0
   -1.8500   14.3550   -1.7370 C   0  0  0  0  0  0  0  0  0  0  0  0
   -2.3570   14.7090   -0.3910 C   0  0  0  0  0  0  0  0  0  0  0  0
   -3.5980   15.2020   -0.0140 C   0  0  0  0  0  0  0  0  0  0  0  0
   -1.6200   14.6010    0.7740 N   0  0  0  0  0  0  0  0  0  0  0  0
   -0.2630   14.1630    1.0070 C   0  0  0  0  0  0  0  0  0  0  0  0
   -4.7900   15.5260   -0.8620 C   0  0  0  0  0  0  0  0  0  0  0  0
   -2.2940   14.9720    1.8330 N   0  0  0  0  0  0  0  0  0  0  0  0
   -3.4720   15.3430    1.3820 C   0  0  0  0  0  0  0  0  0  0  0  0
   -4.4270   15.8390    2.3490 C   0  0  0  0  0  0  0  0  0  0  0  0
   -6.0230   14.6990   -0.5440 C   0  0  0  0  0  0  0  0  0  0  0  0
   -7.1730   15.0680   -0.7540 O   0  0  0  0  0  0  0  0  0  0  0  0
   -5.8000   13.4680    0.0120 N   0  0  0  0  0  0  0  0  0  0  0  0
  1  2  1  0
  2  3  2  0
  2  4  1  0
  3  5  1  0
  3  6  1  0
  4  7  2  0
  6  8  2  0
  7  8  1  0
  8  9  1  0
  9 10  1  0
 10 11  1  0
 10 12  2  3
 12 13  1  0
 13 14  1  0
 14 15  1  0
 15 16  1  0
 16 17  2  0
 16 18  1  0
 18 19  1  0
 17 20  1  0
 18 21  1  0
 17 22  1  0
 21 22  2  0
 22 23  1  0
 20 24  1  0
 24 25  2  0
 24 26  1  0
M  END
