mac-x0348-diamond-x0900_1_A
     RDKit          3D

 23 25  0  0  0  0  0  0  0  0999 V2000
    0.4020   18.6700   -6.1120 C   0  0  0  0  0  0  0  0  0  0  0  0
   -0.0370   17.4920   -5.4190 N   0  0  0  0  0  0  0  0  0  0  0  0
    0.7510   16.7830   -4.5690 C   0  0  0  0  0  0  0  0  0  0  0  0
   -1.2750   16.9070   -5.5000 C   0  0  0  0  0  0  0  0  0  0  0  0
    0.0530   15.7150   -4.0870 C   0  0  0  0  0  0  0  0  0  0  0  0
   -1.2400   15.7780   -4.6720 C   0  0  0  0  0  0  0  0  0  0  0  0
   -2.4230   17.2530   -6.2190 C   0  0  0  0  0  0  0  0  0  0  0  0
    0.5900   14.7000   -3.1240 C   0  0  0  0  0  0  0  0  0  0  0  0
   -2.3810   14.9700   -4.5640 C   0  0  0  0  0  0  0  0  0  0  0  0
   -3.5340   16.4140   -6.0760 C   0  0  0  0  0  0  0  0  0  0  0  0
    0.6690   13.2800   -3.6750 C   0  0  0  0  0  0  0  0  0  0  0  0
   -3.5180   15.3000   -5.2730 C   0  0  0  0  0  0  0  0  0  0  0  0
    0.5140   12.2290   -2.5940 C   0  0  0  0  0  0  0  0  0  0  0  0
    0.6070   12.4810   -1.3920 O   0  0  0  0  0  0  0  0  0  0  0  0
    0.2590   10.9900   -3.1110 O   0  0  0  0  0  0  0  0  0  0  0  0
   -0.2230   10.9830   -4.4760 C   0  0  0  0  0  0  0  0  0  0  0  0
   -0.6450    9.5820   -4.9370 C   0  0  0  0  0  0  0  0  0  0  0  0
   -1.0490    9.5560   -6.4040 C   0  0  1  0  0  0  0  0  0  0  0  0
   -0.0730    9.3800   -7.4390 N   0  0  0  0  0  0  0  0  0  0  0  0
   -1.9510    8.3950   -6.7510 C   0  0  0  0  0  0  0  0  0  0  0  0
   -0.8150    9.3240   -8.6050 C   0  0  0  0  0  0  0  0  0  0  0  0
   -2.1150    8.6310   -8.2480 C   0  0  0  0  0  0  0  0  0  0  0  0
   -0.4950    9.7620   -9.6930 O   0  0  0  0  0  0  0  0  0  0  0  0
  1  2  1  0
  2  3  1  0
  2  4  1  0
  3  5  2  0
  4  6  2  0
  5  6  1  0
  4  7  1  0
  5  8  1  0
  6  9  1  0
  7 10  2  0
  8 11  1  0
  9 12  2  0
 10 12  1  0
 11 13  1  0
 13 14  2  0
 13 15  1  0
 15 16  1  0
 16 17  1  0
 18 17  1  1
 18 19  1  0
 18 20  1  0
 19 21  1  0
 20 22  1  0
 21 22  1  0
 21 23  2  0
M  END
