mac-x0358-mac-x0277
     RDKit          3D

 19 20  0  0  0  0  0  0  0  0999 V2000
    2.0400   12.9080   -2.4740 O   0  0  0  0  0  0  0  0  0  0  0  0
    0.9880   12.5210   -3.2290 C   0  0  0  0  0  0  0  0  0  0  0  0
    0.9260   11.4190   -3.7340 O   0  0  0  0  0  0  0  0  0  0  0  0
   -0.1300   13.5440   -3.3690 C   0  0  2  0  0  0  0  0  0  0  0  0
   -1.2960   13.1740   -4.2680 C   0  0  0  0  0  0  0  0  0  0  0  0
    0.0490   14.9390   -3.9310 C   0  0  0  0  0  0  0  0  0  0  0  0
   -1.5260   12.0050   -5.0010 C   0  0  0  0  0  0  0  0  0  0  0  0
   -2.2480   14.2070   -4.3570 C   0  0  0  0  0  0  0  0  0  0  0  0
   -1.1180   15.2710   -4.6000 C   0  0  0  0  0  0  0  0  0  0  0  0
    1.0830   15.8830   -3.9020 C   0  0  0  0  0  0  0  0  0  0  0  0
   -0.6300   10.9730   -4.9450 O   0  0  0  0  0  0  0  0  0  0  0  0
   -2.6690   11.8910   -5.7950 C   0  0  0  0  0  0  0  0  0  0  0  0
   -3.3810   14.0990   -5.1450 C   0  0  0  0  0  0  0  0  0  0  0  0
   -1.3210   16.4550   -5.2220 C   0  0  0  0  0  0  0  0  0  0  0  0
    0.8710   17.1250   -4.5520 C   0  0  0  0  0  0  0  0  0  0  0  0
   -2.8430   16.6620   -5.9890 Cl  0  0  0  0  0  0  0  0  0  0  0  0
   -3.5920   12.9390   -5.8680 C   0  0  0  0  0  0  0  0  0  0  0  0
   -0.3360   17.3960   -5.2110 C   0  0  0  0  0  0  0  0  0  0  0  0
   -0.5930   18.8930   -6.0080 Cl  0  0  0  0  0  0  0  0  0  0  0  0
  1  2  1  0
  2  3  2  0
  4  2  1  6
  4  5  1  0
  4  6  1  0
  5  7  2  0
  5  8  1  0
  6  9  2  0
  6 10  1  0
  7 11  1  0
  7 12  1  0
  8 13  2  0
  9 14  1  0
 10 15  2  0
 14 16  1  0
 12 17  2  0
 13 17  1  0
 14 18  2  0
 15 18  1  0
 18 19  1  0
M  END
