mac-x0188-mac-x0204
     RDKit          3D

 16 17  0  0  0  0  0  0  0  0999 V2000
    1.4410   13.4590   -5.0240 C   0  0  0  0  0  0  0  0  0  0  0  0
   -0.0320   13.2150   -4.7130 C   0  0  2  0  0  0  0  0  0  0  0  0
   -0.8160   14.1330   -5.4910 O   0  0  0  0  0  0  0  0  0  0  0  0
   -0.5590   13.3880   -3.3050 C   0  0  1  0  0  0  0  0  0  0  0  0
    0.3230   14.0480   -2.2870 C   0  0  0  0  0  0  0  0  0  0  0  0
   -2.1460   14.2480   -4.8870 N   0  0  0  0  0  0  0  0  0  0  0  0
   -2.0370   13.7320   -3.4800 C   0  0  2  0  0  0  0  0  0  0  0  0
    0.6720   15.2170   -2.2830 O   0  0  0  0  0  0  0  0  0  0  0  0
    0.7300   13.1950   -1.3290 O   0  0  0  0  0  0  0  0  0  0  0  0
   -2.5220   15.6630   -4.9180 O   0  0  0  0  0  0  0  0  0  0  0  0
   -2.9240   14.4330   -2.4480 C   0  0  0  0  0  0  0  0  0  0  0  0
   -4.1630   15.0310   -2.7250 C   0  0  0  0  0  0  0  0  0  0  0  0
   -2.4810   14.4770   -1.1040 C   0  0  0  0  0  0  0  0  0  0  0  0
   -4.9160   15.6320   -1.7100 C   0  0  0  0  0  0  0  0  0  0  0  0
   -3.2380   15.0800   -0.0960 C   0  0  0  0  0  0  0  0  0  0  0  0
   -4.4560   15.6570   -0.4020 C   0  0  0  0  0  0  0  0  0  0  0  0
  2  1  1  1
  2  3  1  0
  2  4  1  0
  4  5  1  6
  3  6  1  0
  4  7  1  0
  6  7  1  0
  5  8  2  0
  5  9  1  0
  6 10  1  0
  7 11  1  1
 11 12  2  0
 11 13  1  0
 12 14  1  0
 13 15  2  0
 14 16  2  0
 15 16  1  0
M  END
