mac-x0123-mac-x0565
     RDKit          3D

 20 23  0  0  0  0  0  0  0  0999 V2000
   -3.4010   14.3650    2.0980 N   0  0  0  0  0  0  0  0  0  0  0  0
   -4.4830   14.3240    1.2450 C   0  0  0  0  0  0  0  0  0  0  0  0
   -5.8470   14.2280    1.6030 C   0  0  0  0  0  0  0  0  0  0  0  0
   -4.2330   14.3910   -0.0940 C   0  0  0  0  0  0  0  0  0  0  0  0
   -5.2920   14.3620   -0.9160 C   0  0  0  0  0  0  0  0  0  0  0  0
   -6.8370   14.1930    0.6180 C   0  0  0  0  0  0  0  0  0  0  0  0
   -6.5040   14.1540    2.9320 C   0  0  0  0  0  0  0  0  0  0  0  0
   -2.9930   14.5020   -0.7860 N   0  0  0  0  0  0  0  0  0  0  0  0
   -6.5930   14.2550   -0.6610 N   0  0  0  0  0  0  0  0  0  0  0  0
   -8.2290   14.0840    1.1570 C   0  0  0  0  0  0  0  0  0  0  0  0
   -8.0000   14.3170    2.6440 C   0  0  0  0  0  0  0  0  0  0  0  0
   -4.9350   14.5230   -2.1530 N   0  0  0  0  0  0  0  0  0  0  0  0
   -3.4580   14.7050   -2.1830 C   0  0  2  0  0  0  0  0  0  0  0  0
   -5.8940   15.4310   -2.2570 C   0  0  0  0  0  0  0  0  0  0  0  0
   -2.7190   13.7970   -3.1830 C   0  0  0  0  0  0  0  0  0  0  0  0
   -2.9510   15.9980   -2.4740 O   0  0  0  0  0  0  0  0  0  0  0  0
   -5.7970   16.3570   -1.2700 O   0  0  0  0  0  0  0  0  0  0  0  0
   -6.8180   15.4060   -3.0250 O   0  0  0  0  0  0  0  0  0  0  0  0
   -1.7630   14.6280   -3.8720 O   0  0  0  0  0  0  0  0  0  0  0  0
   -1.6550   15.7420   -3.0060 C   0  0  0  0  0  0  0  0  0  0  0  0
  1  2  1  0
  2  3  2  0
  2  4  1  0
  4  5  2  0
  3  6  1  0
  3  7  1  0
  4  8  1  0
  5  9  1  0
  6  9  2  0
  6 10  1  0
  7 11  1  0
 10 11  1  0
  5 12  1  0
  8 13  1  0
 12 13  1  0
 12 14  1  0
 13 15  1  6
 13 16  1  0
 14 17  1  0
 14 18  2  0
 15 19  1  0
 16 20  1  0
 19 20  1  0
M  END
