mac-x0565-mac-x0345
     RDKit          3D

 18 20  0  0  0  0  0  0  0  0999 V2000
   -6.8310   13.4340   -1.7200 C   0  0  0  0  0  0  0  0  0  0  0  0
   -7.2440   13.7610   -0.5310 N   0  0  0  0  0  0  0  0  0  0  0  0
   -6.2130   14.4720   -0.0340 C   0  0  0  0  0  0  0  0  0  0  0  0
   -5.5090   13.8030   -2.3560 C   0  0  0  0  0  0  0  0  0  0  0  0
   -4.2360   13.5800   -1.7470 C   0  0  0  0  0  0  0  0  0  0  0  0
   -5.5670   14.4080   -3.6250 C   0  0  0  0  0  0  0  0  0  0  0  0
   -3.0960   13.9850   -2.4470 C   0  0  0  0  0  0  0  0  0  0  0  0
   -4.4010   14.7960   -4.2990 C   0  0  0  0  0  0  0  0  0  0  0  0
   -5.8890   14.6800    1.2820 C   0  0  0  0  0  0  0  0  0  0  0  0
   -5.5360   14.9310   -1.0520 N   0  0  0  0  0  0  0  0  0  0  0  0
   -3.1850   14.5750   -3.6890 C   0  0  0  0  0  0  0  0  0  0  0  0
   -1.7920   13.8730   -2.0400 O   0  0  0  0  0  0  0  0  0  0  0  0
   -4.7460   15.4300    1.5140 C   0  0  0  0  0  0  0  0  0  0  0  0
   -4.4690   15.6200   -0.8400 C   0  0  0  0  0  0  0  0  0  0  0  0
   -3.8220   16.0280   -1.9830 N   0  0  0  0  0  0  0  0  0  0  0  0
   -1.9730   14.9020   -4.2120 O   0  0  0  0  0  0  0  0  0  0  0  0
   -1.1010   14.5190   -3.1320 C   0  0  0  0  0  0  0  0  0  0  0  0
   -4.0250   15.9030    0.4400 C   0  0  0  0  0  0  0  0  0  0  0  0
  1  2  2  3
  2  3  1  0
  1  4  1  0
  4  5  2  0
  4  6  1  0
  5  7  1  0
  6  8  2  0
  3  9  2  0
  3 10  1  0
  7 11  2  0
  8 11  1  0
  7 12  1  0
  9 13  1  0
 10 14  2  0
 14 15  1  0
 11 16  1  0
 12 17  1  0
 16 17  1  0
 13 18  2  0
 14 18  1  0
M  END
