mac-x0188-mac-x0357
     RDKit          3D

 21 24  0  0  0  0  0  0  0  0999 V2000
   -0.6470   12.6470   -2.6240 C   0  0  0  0  0  0  0  0  0  0  0  0
    0.5940   13.1890   -2.1810 O   0  0  0  0  0  0  0  0  0  0  0  0
   -1.2200   12.0970   -1.4840 O   0  0  0  0  0  0  0  0  0  0  0  0
   -1.2320   13.6930   -3.4070 C   0  0  0  0  0  0  0  0  0  0  0  0
   -0.4470   11.7080   -3.8090 C   0  0  0  0  0  0  0  0  0  0  0  0
   -0.9900   13.5990   -4.7270 C   0  0  0  0  0  0  0  0  0  0  0  0
   -2.0210   14.7610   -3.3210 C   0  0  0  0  0  0  0  0  0  0  0  0
   -0.4990   12.3490   -5.0740 C   0  0  0  0  0  0  0  0  0  0  0  0
   -0.2460   10.3940   -3.7480 C   0  0  0  0  0  0  0  0  0  0  0  0
   -1.3980   14.6150   -5.4410 O   0  0  0  0  0  0  0  0  0  0  0  0
   -2.1070   15.4100   -4.5140 N   0  0  0  0  0  0  0  0  0  0  0  0
   -2.7100   15.0680   -2.0980 C   0  0  0  0  0  0  0  0  0  0  0  0
   -0.0730    9.7350   -4.9480 C   0  0  0  0  0  0  0  0  0  0  0  0
   -0.2410   11.7260   -6.2670 C   0  0  0  0  0  0  0  0  0  0  0  0
   -0.2500   12.3160   -7.4670 O   0  0  0  0  0  0  0  0  0  0  0  0
   -4.0060   15.5590   -2.2540 C   0  0  0  0  0  0  0  0  0  0  0  0
   -2.2020   14.8600   -0.8150 C   0  0  0  0  0  0  0  0  0  0  0  0
   -0.0360   10.3870   -6.1890 C   0  0  0  0  0  0  0  0  0  0  0  0
   -4.7980   15.8490   -1.1570 C   0  0  0  0  0  0  0  0  0  0  0  0
   -3.0030   15.1530    0.2960 C   0  0  0  0  0  0  0  0  0  0  0  0
   -4.2970   15.6460    0.1190 C   0  0  0  0  0  0  0  0  0  0  0  0
  1  2  1  0
  1  3  1  0
  1  4  1  0
  1  5  1  0
  4  6  2  0
  4  7  1  0
  5  8  2  0
  6  8  1  0
  5  9  1  0
  6 10  1  0
  7 11  2  0
 10 11  1  0
  7 12  1  0
  9 13  2  0
  8 14  1  0
 14 15  1  0
 12 16  2  0
 12 17  1  0
 13 18  1  0
 14 18  2  0
 16 19  1  0
 17 20  2  0
 19 21  2  0
 20 21  1  0
M  END
