mac-x0453-diamond-x0962_2_B
     RDKit          3D

 16 17  0  0  0  0  0  0  0  0999 V2000
   -5.6490   12.5130    1.5620 N   0  0  0  0  0  0  0  0  0  0  0  0
   -6.1040   13.8790    1.7640 C   0  0  1  0  0  0  0  0  0  0  0  0
   -5.4290   15.0040    0.9360 C   0  0  0  0  0  0  0  0  0  0  0  0
   -7.6540   13.9410    1.8170 C   0  0  0  0  0  0  0  0  0  0  0  0
   -4.3180   14.7850   -0.0330 C   0  0  0  0  0  0  0  0  0  0  0  0
   -8.2090   14.8320    2.8760 C   0  0  0  0  0  0  0  0  0  0  0  0
   -3.0090   14.4020    0.1530 C   0  0  0  0  0  0  0  0  0  0  0  0
   -4.5640   14.9920   -1.3720 N   0  0  0  0  0  0  0  0  0  0  0  0
   -9.2200   15.7560    2.8090 C   0  0  0  0  0  0  0  0  0  0  0  0
   -7.6940   14.8060    4.1470 N   0  0  0  0  0  0  0  0  0  0  0  0
  -10.0290   16.1120    1.7150 C   0  0  0  0  0  0  0  0  0  0  0  0
   -2.4620   14.3830   -1.1050 N   0  0  0  0  0  0  0  0  0  0  0  0
   -3.4390   14.7450   -1.9880 C   0  0  0  0  0  0  0  0  0  0  0  0
   -9.3030   16.3020    4.0600 N   0  0  0  0  0  0  0  0  0  0  0  0
   -8.3590   15.6960    4.8330 C   0  0  0  0  0  0  0  0  0  0  0  0
  -10.6770   16.3320    0.7840 N   0  0  0  0  0  0  0  0  0  0  0  0
  2  1  1  6
  2  3  1  0
  2  4  1  0
  3  5  1  0
  4  6  1  0
  5  7  2  0
  5  8  1  0
  6  9  2  0
  6 10  1  0
  9 11  1  0
  7 12  1  0
  8 13  2  0
 12 13  1  0
  9 14  1  0
 10 15  2  0
 14 15  1  0
 11 16  3  0
M  END
