mac-x0341-mac-x0375
     RDKit          3D

 25 27  0  0  0  0  0  0  0  0999 V2000
   -6.7930   14.6930    2.3940 N   0  0  0  0  0  0  0  0  0  0  0  0
   -6.0160   14.7330    1.2760 C   0  0  0  0  0  0  0  0  0  0  0  0
   -4.7220   14.7110    1.3750 N   0  0  0  0  0  0  0  0  0  0  0  0
   -6.6580   14.8050    0.0740 N   0  0  0  0  0  0  0  0  0  0  0  0
   -6.0010   15.0530   -1.1070 C   0  0  0  0  0  0  0  0  0  0  0  0
   -3.9540   14.7440    0.1960 C   0  0  0  0  0  0  0  0  0  0  0  0
   -6.5880   15.3440   -2.1370 O   0  0  0  0  0  0  0  0  0  0  0  0
   -4.5420   14.9160   -1.0540 C   0  0  0  0  0  0  0  0  0  0  0  0
   -2.5570   14.5910    0.2680 C   0  0  0  0  0  0  0  0  0  0  0  0
   -1.7710   14.6100   -0.9070 C   0  0  0  0  0  0  0  0  0  0  0  0
   -3.7880   14.9490   -2.2200 C   0  0  0  0  0  0  0  0  0  0  0  0
   -0.2560   14.4300   -0.8880 C   0  0  0  0  0  0  0  0  0  0  0  0
   -2.4100   14.7960   -2.1430 C   0  0  0  0  0  0  0  0  0  0  0  0
    0.3060   14.1780   -2.3040 C   0  0  0  0  0  0  0  0  0  0  0  0
    1.1310   12.9900   -2.3540 O   0  0  0  0  0  0  0  0  0  0  0  0
    0.8000   12.0520   -3.2960 C   0  0  0  0  0  0  0  0  0  0  0  0
    0.5100   10.8930   -3.0220 O   0  0  0  0  0  0  0  0  0  0  0  0
    0.8330   12.5900   -4.7350 C   0  0  0  0  0  0  0  0  0  0  0  0
    0.7140   11.6420   -5.8000 O   0  0  0  0  0  0  0  0  0  0  0  0
   -0.4600   10.9460   -5.9480 C   0  0  0  0  0  0  0  0  0  0  0  0
   -0.3580    9.7460   -6.6670 C   0  0  0  0  0  0  0  0  0  0  0  0
   -1.7040   11.3240   -5.4580 C   0  0  0  0  0  0  0  0  0  0  0  0
   -1.4780    8.9390   -6.8810 C   0  0  0  0  0  0  0  0  0  0  0  0
   -2.8270   10.5160   -5.6740 C   0  0  0  0  0  0  0  0  0  0  0  0
   -2.7130    9.3260   -6.3810 C   0  0  0  0  0  0  0  0  0  0  0  0
  1  2  1  0
  2  3  2  0
  2  4  1  0
  4  5  1  0
  3  6  1  0
  5  7  2  0
  5  8  1  0
  6  8  2  0
  6  9  1  0
  9 10  2  0
  8 11  1  0
 10 12  1  0
 10 13  1  0
 11 13  2  0
 12 14  1  0
 14 15  1  0
 15 16  1  0
 16 17  2  0
 16 18  1  0
 18 19  1  0
 19 20  1  0
 20 21  2  0
 20 22  1  0
 21 23  1  0
 22 24  2  0
 23 25  2  0
 24 25  1  0
M  END
