mac-x0375-mac-x0213
     RDKit          3D

 20 22  0  0  0  0  0  0  0  0999 V2000
    1.8540   12.6450   -3.0840 O   0  0  0  0  0  0  0  0  0  0  0  0
    0.8510   12.6120   -4.0840 C   0  0  0  0  0  0  0  0  0  0  0  0
    0.0040   11.5280   -3.7300 O   0  0  0  0  0  0  0  0  0  0  0  0
    1.4900   12.4330   -5.4730 C   0  0  0  0  0  0  0  0  0  0  0  0
    0.1670   13.9620   -4.2820 C   0  0  0  0  0  0  0  0  0  0  0  0
    0.9790   11.3160   -6.2080 O   0  0  0  0  0  0  0  0  0  0  0  0
   -1.2820   14.2770   -3.8880 C   0  0  0  0  0  0  0  0  0  0  0  0
    0.9430   15.1840   -3.7780 C   0  0  0  0  0  0  0  0  0  0  0  0
   -0.3040   10.8320   -6.1240 C   0  0  0  0  0  0  0  0  0  0  0  0
   -1.2580   15.6550   -4.5010 C   0  0  0  0  0  0  0  0  0  0  0  0
    0.0480   16.1810   -4.4310 C   0  0  0  0  0  0  0  0  0  0  0  0
   -0.4160    9.5400   -6.6450 C   0  0  0  0  0  0  0  0  0  0  0  0
   -1.4440   11.4490   -5.6110 C   0  0  0  0  0  0  0  0  0  0  0  0
   -2.2790   16.3910   -5.0770 C   0  0  0  0  0  0  0  0  0  0  0  0
    0.3600   17.4320   -4.9210 C   0  0  0  0  0  0  0  0  0  0  0  0
   -1.6300    8.8650   -6.6590 C   0  0  0  0  0  0  0  0  0  0  0  0
   -2.6690   10.7670   -5.6270 C   0  0  0  0  0  0  0  0  0  0  0  0
   -1.9690   17.6610   -5.5810 C   0  0  0  0  0  0  0  0  0  0  0  0
   -0.6660   18.1750   -5.5030 C   0  0  0  0  0  0  0  0  0  0  0  0
   -2.7640    9.4810   -6.1470 C   0  0  0  0  0  0  0  0  0  0  0  0
  2  1  1  0
  2  3  1  0
  2  4  1  0
  2  5  1  0
  4  6  1  0
  5  7  1  0
  5  8  1  0
  6  9  1  0
  7 10  1  0
  8 11  1  0
 10 11  2  0
  9 12  2  0
  9 13  1  0
 10 14  1  0
 11 15  1  0
 12 16  1  0
 13 17  2  0
 14 18  2  0
 15 19  2  0
 18 19  1  0
 16 20  2  0
 17 20  1  0
M  END
