mac-x0392-diamond-x0969_0_A
     RDKit          3D

 15 16  0  0  0  0  0  0  0  0999 V2000
   -0.0420   13.9920   -0.0190 N   0  0  0  0  0  0  0  0  0  0  0  0
   -1.1040   14.9620    0.3130 C   0  0  2  0  0  0  0  0  0  0  0  0
   -2.1020   14.3090    1.2840 C   0  0  0  0  0  0  0  0  0  0  0  0
   -1.9090   15.5520   -0.8720 C   0  0  1  0  0  0  0  0  0  0  0  0
   -1.5380   14.9890   -2.2540 C   0  0  0  0  0  0  0  0  0  0  0  0
   -3.4430   15.7240   -0.5250 C   0  0  0  0  0  0  0  0  0  0  0  0
   -3.1360   13.5360    0.5790 N   0  0  0  0  0  0  0  0  0  0  0  0
   -2.3000   14.7030   -3.1610 O   0  0  0  0  0  0  0  0  0  0  0  0
   -0.1960   14.8370   -2.4170 O   0  0  0  0  0  0  0  0  0  0  0  0
   -4.1560   14.4140   -0.0250 C   0  0  1  0  0  0  0  0  0  0  0  0
   -5.4410   14.4820    0.9020 C   0  0  1  0  0  0  0  0  0  0  0  0
   -4.9090   13.7980   -1.2290 C   0  0  0  0  0  0  0  0  0  0  0  0
   -5.4010   15.3230    2.0720 N   0  0  0  0  0  0  0  0  0  0  0  0
   -6.5150   14.9590    0.0450 N   0  0  0  0  0  0  0  0  0  0  0  0
   -6.2760   14.3670   -1.2570 N   0  0  0  0  0  0  0  0  0  0  0  0
  2  1  1  6
  2  3  1  0
  2  4  1  0
  4  5  1  6
  4  6  1  0
  3  7  1  0
  5  8  2  0
  5  9  1  0
 10  6  1  6
 10  7  1  0
 10 11  1  0
 10 12  1  0
 11 13  1  1
 11 14  1  0
 12 15  1  0
 14 15  1  0
M  END
