mac-x0306-diamond-x0253_0_A
     RDKit          3D

 28 30  0  0  0  0  0  0  0  0999 V2000
    0.3800   11.9420   -5.4130 N   0  0  0  0  0  0  0  0  0  0  0  0
    1.1080   11.6710   -6.5380 C   0  0  0  0  0  0  0  0  0  0  0  0
    2.2240   12.1330   -6.6450 O   0  0  0  0  0  0  0  0  0  0  0  0
    1.0290   12.7130   -4.3670 C   0  0  0  0  0  0  0  0  0  0  0  0
    0.6440   12.2530   -2.9660 C   0  0  0  0  0  0  0  0  0  0  0  0
    0.5070   10.7740   -7.5760 C   0  0  0  0  0  0  0  0  0  0  0  0
    0.4070   12.9500   -1.9180 N   0  0  0  0  0  0  0  0  0  0  0  0
    0.5270   10.9210   -2.8040 O   0  0  0  0  0  0  0  0  0  0  0  0
   -0.4690    9.8640   -7.1520 C   0  0  0  0  0  0  0  0  0  0  0  0
    0.8660   10.7940   -8.9350 C   0  0  0  0  0  0  0  0  0  0  0  0
    0.4880   14.4130   -2.0230 C   0  0  0  0  0  0  0  0  0  0  0  0
   -1.0800    8.9900   -8.0580 C   0  0  0  0  0  0  0  0  0  0  0  0
    0.2630    9.9280   -9.8390 C   0  0  0  0  0  0  0  0  0  0  0  0
   -2.1270    8.0230   -7.5860 C   0  0  0  0  0  0  0  0  0  0  0  0
   -0.6210   14.9020   -2.9660 C   0  0  0  0  0  0  0  0  0  0  0  0
   -0.7070    9.0270   -9.4070 C   0  0  0  0  0  0  0  0  0  0  0  0
   -1.6700   15.8100   -2.3090 C   0  0  0  0  0  0  0  0  0  0  0  0
   -2.8520   15.0780   -1.8030 N   0  0  0  0  0  0  0  0  0  0  0  0
   -4.0870   15.1300   -2.4640 C   0  0  0  0  0  0  0  0  0  0  0  0
   -2.8820   14.6910   -0.4660 C   0  0  0  0  0  0  0  0  0  0  0  0
   -5.2520   15.2560   -1.8060 C   0  0  0  0  0  0  0  0  0  0  0  0
   -3.9800   14.7950    0.2940 C   0  0  0  0  0  0  0  0  0  0  0  0
   -5.2550   15.3600   -0.2920 C   0  0  0  0  0  0  0  0  0  0  0  0
   -6.5210   14.8780    0.3920 C   0  0  0  0  0  0  0  0  0  0  0  0
   -6.5550   14.4920    1.7220 N   0  0  0  0  0  0  0  0  0  0  0  0
   -7.7270   14.7710   -0.1380 N   0  0  0  0  0  0  0  0  0  0  0  0
   -8.5430   14.3200    0.8650 C   0  0  0  0  0  0  0  0  0  0  0  0
   -7.8370   14.1420    2.0240 C   0  0  0  0  0  0  0  0  0  0  0  0
  1  2  1  0
  2  3  2  0
  1  4  1  0
  4  5  1  0
  2  6  1  0
  5  7  2  3
  5  8  1  0
  6  9  2  0
  6 10  1  0
  7 11  1  0
  9 12  1  0
 10 13  2  0
 12 14  1  0
 11 15  1  0
 12 16  2  0
 13 16  1  0
 15 17  1  0
 17 18  1  0
 18 19  1  0
 18 20  1  0
 19 21  2  0
 20 22  2  0
 21 23  1  0
 22 23  1  0
 23 24  1  0
 24 25  1  0
 24 26  2  0
 26 27  1  0
 25 28  1  0
 27 28  2  0
M  END
