mac-x0132-diamond-x0962_2_B
     RDKit          3D

 19 21  0  0  0  0  0  0  0  0999 V2000
   -4.4060   15.2830    1.9090 N   0  0  0  0  0  0  0  0  0  0  0  0
   -5.3410   15.0610    0.9060 C   0  0  0  0  0  0  0  0  0  0  0  0
   -6.6220   14.8790    1.2830 N   0  0  0  0  0  0  0  0  0  0  0  0
   -4.9290   15.0500   -0.4050 C   0  0  0  0  0  0  0  0  0  0  0  0
   -5.9330   14.8520   -1.3440 C   0  0  0  0  0  0  0  0  0  0  0  0
   -7.5210   14.7040    0.2920 C   0  0  0  0  0  0  0  0  0  0  0  0
   -3.5930   15.2250   -0.8070 C   0  0  0  0  0  0  0  0  0  0  0  0
   -8.9740   14.5340    0.6410 C   0  0  0  0  0  0  0  0  0  0  0  0
   -7.2130   14.6830   -1.0100 N   0  0  0  0  0  0  0  0  0  0  0  0
   -5.5810   14.8350   -2.6810 C   0  0  0  0  0  0  0  0  0  0  0  0
   -3.2610   15.1990   -2.1520 C   0  0  0  0  0  0  0  0  0  0  0  0
   -9.5380   15.6450    1.5570 C   0  0  1  0  0  0  0  0  0  0  0  0
   -4.2560   15.0050   -3.0930 C   0  0  0  0  0  0  0  0  0  0  0  0
  -10.9940   15.7750    1.5670 N   0  0  0  0  0  0  0  0  0  0  0  0
   -9.0140   15.4460    2.9260 C   0  0  0  0  0  0  0  0  0  0  0  0
   -9.0650   16.3680    3.9470 N   0  0  0  0  0  0  0  0  0  0  0  0
   -8.3810   14.3570    3.4740 C   0  0  0  0  0  0  0  0  0  0  0  0
   -8.4660   15.8000    5.0350 C   0  0  0  0  0  0  0  0  0  0  0  0
   -8.0510   14.5810    4.7790 N   0  0  0  0  0  0  0  0  0  0  0  0
  1  2  1  0
  2  3  2  0
  2  4  1  0
  4  5  2  0
  3  6  1  0
  4  7  1  0
  6  8  1  0
  5  9  1  0
  6  9  2  0
  5 10  1  0
  7 11  2  0
  8 12  1  0
 10 13  2  0
 11 13  1  0
 12 14  1  1
 12 15  1  0
 15 16  1  0
 15 17  2  0
 16 18  1  0
 17 19  1  0
 18 19  2  0
M  END
