mac-x0402-diamond-x0471_0_A
     RDKit          3D

 18 19  0  0  0  0  0  0  0  0999 V2000
   -2.2190   14.9160   -3.4410 Cl  0  0  0  0  0  0  0  0  0  0  0  0
   -3.4150   14.2780   -2.2790 C   0  0  2  0  0  0  0  0  0  0  0  0
   -4.7880   14.7570   -2.6620 C   0  0  0  0  0  0  0  0  0  0  0  0
   -3.0100   14.5830   -0.8400 C   0  0  0  0  0  0  0  0  0  0  0  0
   -4.0470   15.2460    0.0760 C   0  0  1  0  0  0  0  0  0  0  0  0
   -5.7430   15.1770   -1.8120 C   0  0  0  0  0  0  0  0  0  0  0  0
   -5.5550   15.2520   -0.3200 C   0  0  1  0  0  0  0  0  0  0  0  0
   -3.9300   14.4040    1.6710 S   0  0  0  0  0  0  0  0  0  0  0  0
   -5.6970   14.1490    1.8810 C   0  0  2  0  0  0  0  0  0  0  0  0
   -6.3940   14.4240    0.6500 N   0  0  0  0  0  0  0  0  0  0  0  0
   -6.1700   15.0740    2.8640 N   0  0  0  0  0  0  0  0  0  0  0  0
   -7.8620   14.6050    0.8950 C   0  0  0  0  0  0  0  0  0  0  0  0
   -8.1950   14.1670    2.2590 N   0  0  0  0  0  0  0  0  0  0  0  0
   -8.7750   14.9910    3.2380 C   0  0  0  0  0  0  0  0  0  0  0  0
   -9.3430   16.0490    2.9770 O   0  0  0  0  0  0  0  0  0  0  0  0
   -8.6540   14.4520    4.6810 C   0  0  0  0  0  0  0  0  0  0  0  0
   -9.9330   13.7600    5.1640 C   0  0  0  0  0  0  0  0  0  0  0  0
   -8.2760   15.5690    5.6570 C   0  0  0  0  0  0  0  0  0  0  0  0
  2  1  1  6
  2  3  1  0
  2  4  1  0
  5  4  1  6
  3  6  2  0
  5  7  1  0
  7  6  1  6
  5  8  1  0
  8  9  1  0
  7 10  1  0
  9 10  1  0
  9 11  1  1
 10 12  1  0
 12 13  1  0
 13 14  1  0
 14 15  2  0
 14 16  1  0
 16 17  1  0
 16 18  1  0
M  END
