mac-x0131-mac-x0564
     RDKit          3D

 27 31  0  0  0  0  0  0  0  0999 V2000
   -3.9780   13.1360   -3.4970 C   0  0  0  0  0  0  0  0  0  0  0  0
   -3.6480   14.3360   -2.5890 C   0  0  1  0  0  0  0  0  0  0  0  0
   -3.8460   14.0380   -1.0310 C   0  0  1  0  0  0  0  0  0  0  0  0
   -2.0730   14.5710   -2.7210 C   0  0  2  0  0  0  0  0  0  0  0  0
   -4.8070   15.1270   -3.1380 C   0  0  0  0  0  0  0  0  0  0  0  0
   -4.4470   12.6490   -0.8390 C   0  0  0  0  0  0  0  0  0  0  0  0
   -1.4130   13.1600   -2.7360 C   0  0  0  0  0  0  0  0  0  0  0  0
   -2.4120   14.0530   -0.3780 C   0  0  1  0  0  0  0  0  0  0  0  0
   -1.4810   14.8800   -1.3210 C   0  0  2  0  0  0  0  0  0  0  0  0
   -1.5620   15.4330   -3.8170 N   0  0  0  0  0  0  0  0  0  0  0  0
   -5.8020   15.6260   -2.3810 C   0  0  0  0  0  0  0  0  0  0  0  0
   -4.9420   14.8170   -0.3370 C   0  0  0  0  0  0  0  0  0  0  0  0
   -2.3160   14.4990    1.0860 C   0  0  2  0  0  0  0  0  0  0  0  0
   -1.2440   16.1540   -0.7260 N   0  0  0  0  0  0  0  0  0  0  0  0
   -0.6760   12.5870   -3.8610 C   0  0  0  0  0  0  0  0  0  0  0  0
   -0.0520   14.3280   -1.6140 C   0  0  0  0  0  0  0  0  0  0  0  0
   -0.1370   15.2820   -3.9740 C   0  0  0  0  0  0  0  0  0  0  0  0
   -5.8330   15.5210   -0.9860 C   0  0  0  0  0  0  0  0  0  0  0  0
   -3.3620   15.3700    1.5790 N   0  0  0  0  0  0  0  0  0  0  0  0
    0.6740   13.7660   -0.8040 O   0  0  0  0  0  0  0  0  0  0  0  0
   -1.0580   15.0600    1.4340 N   0  0  0  0  0  0  0  0  0  0  0  0
   -0.4340   15.9130    0.4490 C   0  0  0  0  0  0  0  0  0  0  0  0
    0.6010   12.6700   -4.3720 C   0  0  0  0  0  0  0  0  0  0  0  0
   -1.4290   11.7390   -4.5860 O   0  0  0  0  0  0  0  0  0  0  0  0
    0.4510   14.5040   -2.9060 N   0  0  0  0  0  0  0  0  0  0  0  0
   -0.6460   11.2680   -5.5670 C   0  0  0  0  0  0  0  0  0  0  0  0
    0.6120   11.8120   -5.4820 C   0  0  0  0  0  0  0  0  0  0  0  0
  2  1  1  6
  2  3  1  0
  2  4  1  0
  2  5  1  0
  3  6  1  6
  4  7  1  6
  3  8  1  0
  4  9  1  0
  8  9  1  0
  4 10  1  0
  5 11  2  0
  3 12  1  0
  8 13  1  1
  9 14  1  1
  7 15  1  0
  9 16  1  0
 10 17  1  0
 11 18  1  0
 12 18  2  0
 13 19  1  6
 16 20  2  0
 13 21  1  0
 14 22  1  0
 21 22  1  0
 15 23  2  0
 15 24  1  0
 16 25  1  0
 17 25  1  0
 24 26  1  0
 23 27  1  0
 26 27  2  0
M  END
