mac-x0381-mac-x0451
     RDKit          3D

 23 26  0  0  0  0  0  0  0  0999 V2000
   -7.9510   14.2250    5.0510 N   0  0  0  0  0  0  0  0  0  0  0  0
   -7.8540   14.6650    3.7600 C   0  0  0  0  0  0  0  0  0  0  0  0
   -6.6240   14.4630    3.2930 N   0  0  0  0  0  0  0  0  0  0  0  0
   -9.1690   15.2220    3.2580 C   0  0  0  0  0  0  0  0  0  0  0  0
   -9.3690   15.8440    2.0220 C   0  0  0  0  0  0  0  0  0  0  0  0
  -10.2540   15.0860    4.1410 C   0  0  0  0  0  0  0  0  0  0  0  0
   -5.9590   14.6400    2.0850 C   0  0  0  0  0  0  0  0  0  0  0  0
  -10.6450   16.3380    1.6670 C   0  0  0  0  0  0  0  0  0  0  0  0
  -11.5200   15.5650    3.7970 C   0  0  0  0  0  0  0  0  0  0  0  0
   -6.4190   14.8170    0.8530 N   0  0  0  0  0  0  0  0  0  0  0  0
   -4.2210   14.5930    2.1600 S   0  0  0  0  0  0  0  0  0  0  0  0
  -11.7330   16.1950    2.5650 C   0  0  0  0  0  0  0  0  0  0  0  0
  -10.8650   16.9730    0.4340 C   0  0  0  0  0  0  0  0  0  0  0  0
   -5.3690   14.8980   -0.0740 C   0  0  0  0  0  0  0  0  0  0  0  0
   -4.0850   14.7850    0.4590 C   0  0  0  0  0  0  0  0  0  0  0  0
  -13.0010   16.6840    2.2070 C   0  0  0  0  0  0  0  0  0  0  0  0
  -12.1320   17.4520    0.0920 C   0  0  0  0  0  0  0  0  0  0  0  0
   -5.4980   15.0750   -1.4740 C   0  0  0  0  0  0  0  0  0  0  0  0
   -2.9300   14.8270   -0.3440 C   0  0  0  0  0  0  0  0  0  0  0  0
  -13.2000   17.3060    0.9760 C   0  0  0  0  0  0  0  0  0  0  0  0
   -4.3550   15.1170   -2.2850 C   0  0  0  0  0  0  0  0  0  0  0  0
   -3.0980   14.9890   -1.7190 C   0  0  0  0  0  0  0  0  0  0  0  0
   -2.0170   15.0210   -2.5150 F   0  0  0  0  0  0  0  0  0  0  0  0
  1  2  1  0
  2  3  2  3
  2  4  1  0
  4  5  2  0
  4  6  1  0
  3  7  1  0
  5  8  1  0
  6  9  2  0
  7 10  2  0
  7 11  1  0
  8 12  2  0
  9 12  1  0
  8 13  1  0
 10 14  1  0
 11 15  1  0
 14 15  2  0
 12 16  1  0
 13 17  2  0
 14 18  1  0
 15 19  1  0
 16 20  2  0
 17 20  1  0
 18 21  2  0
 19 22  2  0
 21 22  1  0
 22 23  1  0
M  END
