mac-x0337-diamond-x0465_0_A
     RDKit          3D

 27 28  0  0  0  0  0  0  0  0999 V2000
   -5.7580    9.2690   -2.1200 C   0  0  0  0  0  0  0  0  0  0  0  0
   -5.2430   10.6360   -1.7730 C   0  0  0  0  0  0  0  0  0  0  0  0
   -5.9660   11.4730   -0.9160 C   0  0  0  0  0  0  0  0  0  0  0  0
   -4.0280   11.0830   -2.3080 C   0  0  0  0  0  0  0  0  0  0  0  0
   -3.5420   12.3520   -1.9950 C   0  0  0  0  0  0  0  0  0  0  0  0
   -5.4840   12.7450   -0.5980 C   0  0  0  0  0  0  0  0  0  0  0  0
   -4.2740   13.1800   -1.1410 C   0  0  0  0  0  0  0  0  0  0  0  0
   -3.6660   14.7970   -0.7500 S   0  0  2  0  0  0  0  0  0  0  0  0
   -3.3470   15.4790   -1.9830 O   0  0  0  0  0  0  0  0  0  0  0  0
   -2.8280   14.7780    0.5370 N   0  0  0  0  0  0  0  0  0  0  0  0
   -4.9580   15.7060   -0.2120 N   0  0  0  0  0  0  0  0  0  0  0  0
   -1.3870   14.4700    0.4620 C   0  0  0  0  0  0  0  0  0  0  0  0
   -1.0760   13.8260   -0.8810 C   0  0  0  0  0  0  0  0  0  0  0  0
    0.4070   13.5690   -1.1190 C   0  0  0  0  0  0  0  0  0  0  0  0
    0.6030   13.5140   -2.5500 N   0  0  0  0  0  0  0  0  0  0  0  0
    0.6370   12.4480   -3.2610 C   0  0  0  0  0  0  0  0  0  0  0  0
    0.8210   12.5640   -4.7710 C   0  0  1  0  0  0  0  0  0  0  0  0
    0.5200   11.1740   -2.8110 O   0  0  0  0  0  0  0  0  0  0  0  0
    2.2550   13.0240   -4.9720 C   0  0  0  0  0  0  0  0  0  0  0  0
    0.6430   11.3880   -5.5510 O   0  0  0  0  0  0  0  0  0  0  0  0
   -0.5880   10.8040   -5.6580 C   0  0  0  0  0  0  0  0  0  0  0  0
   -0.6820    9.7510   -6.5840 C   0  0  0  0  0  0  0  0  0  0  0  0
   -1.7330   11.1560   -4.9400 C   0  0  0  0  0  0  0  0  0  0  0  0
    0.3850    9.3770   -7.3020 F   0  0  0  0  0  0  0  0  0  0  0  0
   -1.8720    9.0650   -6.7870 C   0  0  0  0  0  0  0  0  0  0  0  0
   -2.9340   10.4690   -5.1450 C   0  0  0  0  0  0  0  0  0  0  0  0
   -3.0060    9.4220   -6.0660 C   0  0  0  0  0  0  0  0  0  0  0  0
  1  2  1  0
  2  3  2  0
  2  4  1  0
  4  5  2  0
  3  6  1  0
  5  7  1  0
  6  7  2  0
  7  8  1  0
  8  9  2  0
  8 10  2  0
  8 11  1  1
 10 12  1  0
 12 13  1  0
 13 14  1  0
 14 15  1  0
 15 16  2  3
 16 17  1  0
 16 18  1  0
 17 19  1  1
 17 20  1  0
 20 21  1  0
 21 22  2  0
 21 23  1  0
 22 24  1  0
 22 25  1  0
 23 26  2  0
 25 27  2  0
 26 27  1  0
M  END
