mac-x0584-diamond-x0900_1_A
     RDKit          3D

 27 31  0  0  0  0  0  0  0  0999 V2000
   -0.9160   10.0830   -9.6380 O   0  0  0  0  0  0  0  0  0  0  0  0
   -0.8110    9.7220   -8.4800 C   0  0  0  0  0  0  0  0  0  0  0  0
    0.1990    8.9330   -7.9890 N   0  0  0  0  0  0  0  0  0  0  0  0
   -1.7380   10.0250   -7.3130 C   0  0  2  0  0  0  0  0  0  0  0  0
   -1.5530   11.4150   -6.6510 C   0  0  0  0  0  0  0  0  0  0  0  0
   -1.4460    8.8550   -6.3440 C   0  0  0  0  0  0  0  0  0  0  0  0
   -0.2750    8.0910   -6.9440 C   0  0  0  0  0  0  0  0  0  0  0  0
   -0.1270   12.0090   -6.6300 C   0  0  0  0  0  0  0  0  0  0  0  0
    0.1370   13.3170   -5.8280 C   0  0  0  0  0  0  0  0  0  0  0  0
   -0.8870   13.7640   -4.7540 C   0  0  1  0  0  0  0  0  0  0  0  0
   -0.2360   14.3370   -3.4860 C   0  0  2  0  0  0  0  0  0  0  0  0
   -1.8300   14.9180   -5.0940 C   0  0  0  0  0  0  0  0  0  0  0  0
    0.5360   13.2070   -2.8350 C   0  0  0  0  0  0  0  0  0  0  0  0
   -1.4170   14.8210   -2.7580 N   0  0  0  0  0  0  0  0  0  0  0  0
   -2.4780   15.1700   -3.7300 C   0  0  0  0  0  0  0  0  0  0  0  0
    1.5120   12.3070   -3.6360 C   0  0  0  0  0  0  0  0  0  0  0  0
   -0.2140   11.8880   -2.4940 C   0  0  0  0  0  0  0  0  0  0  0  0
   -1.5320   14.8020   -1.3560 C   0  0  0  0  0  0  0  0  0  0  0  0
    0.2940   11.3560   -3.8300 C   0  0  0  0  0  0  0  0  0  0  0  0
   -0.4110   14.6000   -0.5700 N   0  0  0  0  0  0  0  0  0  0  0  0
   -2.6610   14.9900   -0.6550 C   0  0  0  0  0  0  0  0  0  0  0  0
   -0.4580   14.5700    0.7970 C   0  0  0  0  0  0  0  0  0  0  0  0
   -2.6250   14.9670    0.8350 C   0  0  0  0  0  0  0  0  0  0  0  0
   -4.0340   15.2510   -0.9280 C   0  0  0  0  0  0  0  0  0  0  0  0
   -1.4900   14.7290    1.5440 N   0  0  0  0  0  0  0  0  0  0  0  0
   -3.7860   15.2130    1.3550 N   0  0  0  0  0  0  0  0  0  0  0  0
   -4.6200   15.3720    0.2650 C   0  0  0  0  0  0  0  0  0  0  0  0
  1  2  2  0
  2  3  1  0
  2  4  1  0
  4  5  1  1
  4  6  1  0
  3  7  1  0
  6  7  1  0
  5  8  1  0
  8  9  1  0
 10  9  1  6
 10 11  1  0
 10 12  1  0
 11 13  1  1
 11 14  1  0
 12 15  1  0
 14 15  1  0
 13 16  1  0
 13 17  1  0
 14 18  1  0
 16 19  1  0
 17 19  1  0
 18 20  1  0
 18 21  2  0
 20 22  1  0
 21 23  1  0
 21 24  1  0
 22 25  2  0
 23 25  1  0
 23 26  2  0
 24 27  2  0
 26 27  1  0
M  END
