mac-x0161-mac-x0354
     RDKit          3D

 32 36  0  0  0  0  0  0  0  0999 V2000
   -4.6070   15.3920    1.2880 N   0  0  0  0  0  0  0  0  0  0  0  0
   -3.7090   14.9120    0.2540 C   0  0  2  0  0  0  0  0  0  0  0  0
   -2.2210   15.2220    0.5090 C   0  0  2  0  0  0  0  0  0  0  0  0
   -4.1790   15.5700   -0.9560 N   0  0  0  0  0  0  0  0  0  0  0  0
   -3.3700   15.2410   -2.1280 C   0  0  0  0  0  0  0  0  0  0  0  0
   -1.4530   14.8960   -0.7610 C   0  0  1  0  0  0  0  0  0  0  0  0
   -1.4570   14.5010    1.5330 N   0  0  0  0  0  0  0  0  0  0  0  0
   -1.9590   15.6020   -1.9210 N   0  0  0  0  0  0  0  0  0  0  0  0
   -0.1130   15.1550   -0.3120 N   0  0  0  0  0  0  0  0  0  0  0  0
   -0.0960   14.5060    0.9890 C   0  0  0  0  0  0  0  0  0  0  0  0
   -1.1920   15.5460   -3.1850 C   0  0  0  0  0  0  0  0  0  0  0  0
   -0.8010   14.1450   -3.6810 C   0  0  2  0  0  0  0  0  0  0  0  0
   -1.9240   13.3420   -4.3040 C   0  0  0  0  0  0  0  0  0  0  0  0
   -0.4090   13.3500   -2.5670 O   0  0  0  0  0  0  0  0  0  0  0  0
   -0.6180   11.9620   -2.9530 N   0  0  0  0  0  0  0  0  0  0  0  0
   -1.3140   11.9780   -4.2050 C   0  0  1  0  0  0  0  0  0  0  0  0
   -2.2860   10.9450   -4.1730 O   0  0  0  0  0  0  0  0  0  0  0  0
    0.6690   11.5120   -3.2530 C   0  0  0  0  0  0  0  0  0  0  0  0
    1.6380   12.1890   -2.4820 O   0  0  0  0  0  0  0  0  0  0  0  0
    0.6780   10.1570   -2.8290 O   0  0  0  0  0  0  0  0  0  0  0  0
    0.8900   11.6890   -4.7430 C   0  0  0  0  0  0  0  0  0  0  0  0
    1.8540   12.5380   -5.3430 C   0  0  0  0  0  0  0  0  0  0  0  0
    0.2610   11.0890   -5.8710 C   0  0  0  0  0  0  0  0  0  0  0  0
    0.8790   11.5820   -6.9590 N   0  0  0  0  0  0  0  0  0  0  0  0
    1.8450   12.4680   -6.6650 N   0  0  0  0  0  0  0  0  0  0  0  0
   -0.8150   10.1160   -6.0240 C   0  0  0  0  0  0  0  0  0  0  0  0
    0.5570   11.2070   -8.3210 C   0  0  0  0  0  0  0  0  0  0  0  0
   -0.5320    8.7600   -6.2420 C   0  0  0  0  0  0  0  0  0  0  0  0
   -2.1450   10.5300   -5.9610 C   0  0  0  0  0  0  0  0  0  0  0  0
   -1.5660    7.8410   -6.3820 C   0  0  0  0  0  0  0  0  0  0  0  0
   -3.1800    9.6120   -6.0980 C   0  0  0  0  0  0  0  0  0  0  0  0
   -2.8890    8.2640   -6.3080 C   0  0  0  0  0  0  0  0  0  0  0  0
  2  1  1  1
  2  3  1  0
  2  4  1  0
  4  5  1  0
  3  6  1  0
  3  7  1  1
  5  8  1  0
  6  8  1  0
  6  9  1  1
  7 10  1  0
  9 10  1  0
  8 11  1  0
 12 11  1  1
 12 13  1  0
 12 14  1  0
 14 15  1  0
 13 16  1  0
 15 16  1  0
 16 17  1  1
 15 18  1  0
 18 19  1  0
 18 20  1  0
 18 21  1  0
 21 22  1  0
 21 23  2  0
 23 24  1  0
 22 25  2  0
 24 25  1  0
 23 26  1  0
 24 27  1  0
 26 28  2  0
 26 29  1  0
 28 30  1  0
 29 31  2  0
 30 32  2  0
 31 32  1  0
M  END
