mac-x0385-mac-x0453
     RDKit          3D

 11 11  0  0  0  0  0  0  0  0999 V2000
   -5.1250   15.4460   -0.9880 C   0  0  0  0  0  0  0  0  0  0  0  0
   -3.7790   15.1690   -0.4080 C   0  0  0  0  0  0  0  0  0  0  0  0
   -2.6960   15.0160   -1.2430 C   0  0  0  0  0  0  0  0  0  0  0  0
   -3.5290   15.0480    0.9580 C   0  0  0  0  0  0  0  0  0  0  0  0
   -4.6080   15.1770    1.8520 N   0  0  0  0  0  0  0  0  0  0  0  0
   -2.2910   14.8040    1.4290 N   0  0  0  0  0  0  0  0  0  0  0  0
   -1.4520   14.7770   -0.8110 N   0  0  0  0  0  0  0  0  0  0  0  0
   -5.6140   14.1390    1.6960 C   0  0  0  0  0  0  0  0  0  0  0  0
   -1.3140   14.6900    0.5210 C   0  0  0  0  0  0  0  0  0  0  0  0
    0.0380   14.4430    1.0370 C   0  0  0  0  0  0  0  0  0  0  0  0
   -6.7400   14.2260    2.6130 N   0  0  0  0  0  0  0  0  0  0  0  0
  1  2  1  0
  2  3  2  0
  2  4  1  0
  4  5  1  0
  4  6  2  0
  3  7  1  0
  5  8  1  0
  6  9  1  0
  7  9  2  0
  9 10  1  0
  8 11  1  0
M  END
