mac-x0348-mac-x0179
     RDKit          3D

 26 29  0  0  0  0  0  0  0  0999 V2000
    0.3110   18.7720   -6.0290 C   0  0  0  0  0  0  0  0  0  0  0  0
   -0.0810   17.4800   -5.5650 N   0  0  0  0  0  0  0  0  0  0  0  0
    0.7500   16.6360   -4.9220 C   0  0  0  0  0  0  0  0  0  0  0  0
   -1.3070   16.9130   -5.7060 C   0  0  0  0  0  0  0  0  0  0  0  0
    0.1020   15.4780   -4.6370 C   0  0  0  0  0  0  0  0  0  0  0  0
   -1.2360   15.6370   -5.1250 C   0  0  0  0  0  0  0  0  0  0  0  0
   -2.4690   17.4020   -6.3030 C   0  0  0  0  0  0  0  0  0  0  0  0
    0.7780   14.3290   -3.9540 C   0  0  0  0  0  0  0  0  0  0  0  0
   -2.3860   14.8300   -5.1450 C   0  0  0  0  0  0  0  0  0  0  0  0
   -3.5840   16.5690   -6.3190 C   0  0  0  0  0  0  0  0  0  0  0  0
    0.0110   13.0030   -3.8880 C   0  0  2  0  0  0  0  0  0  0  0  0
   -3.5530   15.3070   -5.7480 C   0  0  0  0  0  0  0  0  0  0  0  0
    0.6350   12.1880   -2.7570 C   0  0  0  0  0  0  0  0  0  0  0  0
   -0.2150   12.1640   -5.1170 N   0  0  0  0  0  0  0  0  0  0  0  0
    1.4100   12.6140   -1.9190 O   0  0  0  0  0  0  0  0  0  0  0  0
    0.2690   10.8920   -2.6960 O   0  0  0  0  0  0  0  0  0  0  0  0
    0.6630   11.7620   -6.1250 C   0  0  0  0  0  0  0  0  0  0  0  0
   -1.2700   11.3010   -5.0650 C   0  0  0  0  0  0  0  0  0  0  0  0
    1.7670   12.1780   -6.4140 O   0  0  0  0  0  0  0  0  0  0  0  0
   -2.1620   11.2620   -4.2450 O   0  0  0  0  0  0  0  0  0  0  0  0
   -0.0010   10.6470   -6.8480 C   0  0  0  0  0  0  0  0  0  0  0  0
   -1.1790   10.3760   -6.1830 C   0  0  0  0  0  0  0  0  0  0  0  0
    0.3650    9.9210   -7.9720 C   0  0  0  0  0  0  0  0  0  0  0  0
   -2.0550    9.3830   -6.5820 C   0  0  0  0  0  0  0  0  0  0  0  0
   -0.5080    8.9050   -8.4010 C   0  0  0  0  0  0  0  0  0  0  0  0
   -1.7100    8.6380   -7.7090 C   0  0  0  0  0  0  0  0  0  0  0  0
  1  2  1  0
  2  3  1  0
  2  4  1  0
  3  5  2  0
  4  6  2  0
  5  6  1  0
  4  7  1  0
  5  8  1  0
  6  9  1  0
  7 10  2  0
 11  8  1  6
  9 12  2  0
 10 12  1  0
 11 13  1  0
 11 14  1  0
 13 15  2  0
 13 16  1  0
 14 17  1  0
 14 18  1  0
 17 19  2  0
 18 20  2  0
 17 21  1  0
 18 22  1  0
 21 22  2  0
 21 23  1  0
 22 24  1  0
 23 25  2  0
 24 26  2  0
 25 26  1  0
M  END
