mac-x0148-diamond-x0967_0_A
     RDKit          3D

 23 27  0  0  0  0  0  0  0  0999 V2000
   -2.7050   13.7710   -5.6100 C   0  0  0  0  0  0  0  0  0  0  0  0
   -3.3220   15.0090   -5.1970 O   0  0  0  0  0  0  0  0  0  0  0  0
   -2.9950   15.1860   -3.7940 C   0  0  0  0  0  0  0  0  0  0  0  0
   -1.7950   13.3870   -4.4690 C   0  0  2  0  0  0  0  0  0  0  0  0
   -1.5600   14.7140   -3.7390 C   0  0  2  0  0  0  0  0  0  0  0  0
   -0.5170   12.6440   -4.7660 C   0  0  0  0  0  0  0  0  0  0  0  0
    0.1270   12.3660   -3.4120 C   0  0  0  0  0  0  0  0  0  0  0  0
   -0.7400   14.5330   -2.5060 N   0  0  0  0  0  0  0  0  0  0  0  0
    0.4720   13.6850   -2.6950 C   0  0  0  0  0  0  0  0  0  0  0  0
   -1.1380   14.5460   -1.1430 C   0  0  0  0  0  0  0  0  0  0  0  0
   -0.0890   14.3200   -0.3250 N   0  0  0  0  0  0  0  0  0  0  0  0
   -2.4000   14.7450   -0.5320 C   0  0  0  0  0  0  0  0  0  0  0  0
   -0.2790   14.2770    1.0030 C   0  0  0  0  0  0  0  0  0  0  0  0
   -2.4070   14.6350    0.8580 C   0  0  0  0  0  0  0  0  0  0  0  0
   -3.8360   15.0570   -0.9510 C   0  0  0  0  0  0  0  0  0  0  0  0
   -1.4000   14.4180    1.6480 N   0  0  0  0  0  0  0  0  0  0  0  0
   -3.6600   14.7680    1.4060 N   0  0  0  0  0  0  0  0  0  0  0  0
   -4.5880   14.5150    0.3200 C   0  0  2  0  0  0  0  0  0  0  0  0
   -5.1480   13.1020    0.0110 C   0  0  0  0  0  0  0  0  0  0  0  0
   -5.6940   15.1080    1.1230 C   0  0  0  0  0  0  0  0  0  0  0  0
   -6.4010   13.2280   -0.7910 N   0  0  0  0  0  0  0  0  0  0  0  0
   -6.9940   14.7680    1.0010 C   0  0  0  0  0  0  0  0  0  0  0  0
   -7.4880   13.7790    0.0170 C   0  0  0  0  0  0  0  0  0  0  0  0
  1  2  1  0
  2  3  1  0
  4  1  1  6
  5  3  1  1
  4  5  1  0
  4  6  1  0
  6  7  1  0
  5  8  1  0
  7  9  1  0
  8  9  1  0
  8 10  1  0
 10 11  2  0
 10 12  1  0
 11 13  1  0
 12 14  2  0
 12 15  1  0
 13 16  2  0
 14 16  1  0
 14 17  1  0
 18 15  1  6
 17 18  1  0
 18 19  1  0
 18 20  1  0
 19 21  1  0
 20 22  2  0
 21 23  1  0
 22 23  1  0
M  END
