mac-x0123-mac-x0394
     RDKit          3D

 26 29  0  0  0  0  0  0  0  0999 V2000
   -3.9150   15.0770    1.6510 N   0  0  0  0  0  0  0  0  0  0  0  0
   -4.9840   14.8590    0.7960 C   0  0  0  0  0  0  0  0  0  0  0  0
   -6.2390   14.5580    1.1760 C   0  0  0  0  0  0  0  0  0  0  0  0
   -4.7660   14.9680   -0.5960 N   0  0  0  0  0  0  0  0  0  0  0  0
   -5.7810   14.7530   -1.5380 C   0  0  0  0  0  0  0  0  0  0  0  0
   -7.2420   14.3550    0.1000 C   0  0  0  0  0  0  0  0  0  0  0  0
   -6.9370   14.3590    2.4770 C   0  0  0  0  0  0  0  0  0  0  0  0
   -3.6250   15.2890   -1.2280 N   0  0  0  0  0  0  0  0  0  0  0  0
   -7.0490   14.4270   -1.1720 N   0  0  0  0  0  0  0  0  0  0  0  0
   -8.5760   14.0370    0.6950 C   0  0  0  0  0  0  0  0  0  0  0  0
   -8.4080   14.5360    2.1270 C   0  0  0  0  0  0  0  0  0  0  0  0
   -5.3010   14.9330   -2.7430 N   0  0  0  0  0  0  0  0  0  0  0  0
   -4.0170   15.2680   -2.5040 C   0  0  0  0  0  0  0  0  0  0  0  0
   -3.0600   15.6330   -3.5430 C   0  0  0  0  0  0  0  0  0  0  0  0
   -2.9950   15.0670   -4.9330 C   0  0  0  0  0  0  0  0  0  0  0  0
   -1.5330   15.2770   -4.9710 C   0  0  0  0  0  0  0  0  0  0  0  0
   -0.7010   14.2010   -4.7320 C   0  0  0  0  0  0  0  0  0  0  0  0
   -1.0060   16.5470   -5.1950 C   0  0  0  0  0  0  0  0  0  0  0  0
    0.6700   14.3650   -4.6970 C   0  0  0  0  0  0  0  0  0  0  0  0
    0.3620   16.7210   -5.1660 C   0  0  0  0  0  0  0  0  0  0  0  0
    0.9900   18.2900   -5.4340 Cl  0  0  0  0  0  0  0  0  0  0  0  0
    1.5190   13.1620   -4.4070 C   0  0  0  0  0  0  0  0  0  0  0  0
    1.2030   15.6360   -4.9140 C   0  0  0  0  0  0  0  0  0  0  0  0
    0.9460   12.4200   -3.2230 C   0  0  0  0  0  0  0  0  0  0  0  0
    0.0430   11.4870   -3.6020 O   0  0  0  0  0  0  0  0  0  0  0  0
    1.1900   12.5840   -2.0430 O   0  0  0  0  0  0  0  0  0  0  0  0
  1  2  1  0
  2  3  2  0
  2  4  1  0
  4  5  1  0
  3  6  1  0
  3  7  1  0
  4  8  1  0
  5  9  1  0
  6  9  2  0
  6 10  1  0
  7 11  1  0
 10 11  1  0
  5 12  2  0
  8 13  2  0
 12 13  1  0
 13 14  1  0
 14 15  1  0
 15 16  1  0
 16 17  2  0
 16 18  1  0
 17 19  1  0
 18 20  2  0
 20 21  1  0
 19 22  1  0
 19 23  2  0
 20 23  1  0
 22 24  1  0
 24 25  1  0
 24 26  2  0
M  END
