mac-x0302-mac-x0263
     RDKit          3D

 22 23  0  0  0  0  0  0  0  0999 V2000
    1.5650   14.1560   -3.6570 O   0  0  0  0  0  0  0  0  0  0  0  0
    0.5630   14.0440   -2.7690 C   0  0  0  0  0  0  0  0  0  0  0  0
    0.7560   13.5480   -1.6730 O   0  0  0  0  0  0  0  0  0  0  0  0
   -0.7570   14.5790   -3.2830 C   0  0  0  0  0  0  0  0  0  0  0  0
   -1.7860   14.3880   -2.2750 N   0  0  0  0  0  0  0  0  0  0  0  0
   -3.0670   14.7750   -2.5650 C   0  0  0  0  0  0  0  0  0  0  0  0
   -3.4580   14.9950   -3.7040 O   0  0  0  0  0  0  0  0  0  0  0  0
   -3.9750   14.9450   -1.3980 C   0  0  0  0  0  0  0  0  0  0  0  0
   -5.2950   14.8310   -1.6620 C   0  0  0  0  0  0  0  0  0  0  0  0
   -3.4710   15.2430   -0.0450 C   0  0  0  0  0  0  0  0  0  0  0  0
   -6.2540   15.0820   -0.5870 C   0  0  2  0  0  0  0  0  0  0  0  0
   -4.2450   15.2590    1.0490 C   0  0  0  0  0  0  0  0  0  0  0  0
   -6.5280   16.3960   -0.8960 O   0  0  0  0  0  0  0  0  0  0  0  0
   -5.6560   14.9440    0.7990 C   0  0  0  0  0  0  0  0  0  0  0  0
   -7.5890   14.5310   -0.4270 N   0  0  0  0  0  0  0  0  0  0  0  0
   -7.6610   14.3610    0.8630 C   0  0  0  0  0  0  0  0  0  0  0  0
   -6.5380   14.5460    1.6350 N   0  0  0  0  0  0  0  0  0  0  0  0
   -8.9230   13.9870    1.5650 C   0  0  0  0  0  0  0  0  0  0  0  0
   -9.5180   15.3440    1.9660 C   0  0  0  0  0  0  0  0  0  0  0  0
  -10.7960   15.2820    2.7610 C   0  0  0  0  0  0  0  0  0  0  0  0
  -11.5320   14.1770    2.5110 O   0  0  0  0  0  0  0  0  0  0  0  0
  -11.1610   16.1360    3.5560 O   0  0  0  0  0  0  0  0  0  0  0  0
  1  2  1  0
  2  3  2  0
  2  4  1  0
  4  5  1  0
  5  6  1  0
  6  7  2  0
  6  8  1  0
  8  9  2  0
  8 10  1  0
  9 11  1  0
 10 12  2  0
 11 13  1  6
 11 14  1  0
 12 14  1  0
 11 15  1  0
 15 16  2  0
 14 17  2  0
 16 17  1  0
 16 18  1  0
 18 19  1  0
 19 20  1  0
 20 21  1  0
 20 22  2  0
M  END
