mac-x0496-mac-x0204
     RDKit          3D

 28 30  0  0  0  0  0  0  0  0999 V2000
  -10.0090   17.8290    4.7640 C   0  0  0  0  0  0  0  0  0  0  0  0
  -10.0170   16.7950    3.7150 C   0  0  0  0  0  0  0  0  0  0  0  0
  -11.0120   16.6540    2.8290 N   0  0  0  0  0  0  0  0  0  0  0  0
   -9.0030   15.8910    3.5740 N   0  0  0  0  0  0  0  0  0  0  0  0
  -10.6020   15.5760    2.0400 O   0  0  0  0  0  0  0  0  0  0  0  0
   -9.4000   15.1720    2.5490 C   0  0  0  0  0  0  0  0  0  0  0  0
   -8.7320   14.0190    1.9050 C   0  0  0  0  0  0  0  0  0  0  0  0
   -7.3080   14.2760    1.8050 N   0  0  0  0  0  0  0  0  0  0  0  0
   -6.7770   14.5960    0.5690 C   0  0  0  0  0  0  0  0  0  0  0  0
   -7.4690   14.7660   -0.4280 O   0  0  0  0  0  0  0  0  0  0  0  0
   -5.3060   14.7270    0.4820 C   0  0  0  0  0  0  0  0  0  0  0  0
   -4.5710   14.8100    1.6480 C   0  0  0  0  0  0  0  0  0  0  0  0
   -4.6470   14.7660   -0.7330 C   0  0  0  0  0  0  0  0  0  0  0  0
   -3.1870   14.9230    1.6110 C   0  0  0  0  0  0  0  0  0  0  0  0
   -3.2550   14.8820   -0.7780 C   0  0  0  0  0  0  0  0  0  0  0  0
   -2.6350   14.9240   -2.1270 C   0  0  1  0  0  0  0  0  0  0  0  0
   -2.5190   14.9590    0.3980 C   0  0  0  0  0  0  0  0  0  0  0  0
   -1.1940   14.3730   -2.5070 C   0  0  0  0  0  0  0  0  0  0  0  0
   -3.5820   14.3550   -3.0430 O   0  0  0  0  0  0  0  0  0  0  0  0
   -0.7470   13.1680   -1.8740 O   0  0  0  0  0  0  0  0  0  0  0  0
   -0.1270   15.3240   -2.4240 O   0  0  0  0  0  0  0  0  0  0  0  0
   -1.6480   14.0920   -3.8710 C   0  0  0  0  0  0  0  0  0  0  0  0
   -2.1420   15.1750   -4.5770 C   0  0  0  0  0  0  0  0  0  0  0  0
   -1.6560   12.8400   -4.4560 C   0  0  0  0  0  0  0  0  0  0  0  0
   -2.6430   14.9920   -5.8220 C   0  0  0  0  0  0  0  0  0  0  0  0
   -2.1420   12.6230   -5.6960 N   0  0  0  0  0  0  0  0  0  0  0  0
   -3.1260   16.0920   -6.4670 O   0  0  0  0  0  0  0  0  0  0  0  0
   -2.6320   13.7080   -6.3500 C   0  0  0  0  0  0  0  0  0  0  0  0
  1  2  1  0
  2  3  2  0
  2  4  1  0
  3  5  1  0
  4  6  2  0
  5  6  1  0
  6  7  1  0
  7  8  1  0
  8  9  1  0
  9 10  2  0
  9 11  1  0
 11 12  2  0
 11 13  1  0
 12 14  1  0
 13 15  2  0
 15 16  1  0
 14 17  2  0
 15 17  1  0
 16 18  1  0
 16 19  1  6
 18 20  1  0
 18 21  1  0
 18 22  1  0
 22 23  2  0
 22 24  1  0
 23 25  1  0
 24 26  2  0
 25 27  1  0
 25 28  2  0
 26 28  1  0
M  END
