mac-x0472-mac-x0326
     RDKit          3D

 28 31  0  0  0  0  0  0  0  0999 V2000
   -3.7810   13.1980   -1.5460 S   0  0  0  0  0  0  0  0  0  0  0  0
   -3.7750   12.8820    0.1340 N   0  0  0  0  0  0  0  0  0  0  0  0
   -3.9160   13.9540    0.8760 C   0  0  0  0  0  0  0  0  0  0  0  0
   -2.4260   13.0160   -2.1530 O   0  0  0  0  0  0  0  0  0  0  0  0
   -4.5710   11.6410   -1.8400 C   0  0  0  0  0  0  0  0  0  0  0  0
   -3.8870   10.6410   -2.5130 C   0  0  0  0  0  0  0  0  0  0  0  0
   -5.8680   11.4530   -1.3790 C   0  0  0  0  0  0  0  0  0  0  0  0
   -4.2340   14.2070    2.0730 N   0  0  0  0  0  0  0  0  0  0  0  0
   -3.6400   15.3340    0.1740 S   0  0  0  0  0  0  0  0  0  0  0  0
   -4.5110    9.4200   -2.7300 C   0  0  0  0  0  0  0  0  0  0  0  0
   -6.4920   10.2360   -1.5950 C   0  0  0  0  0  0  0  0  0  0  0  0
   -3.9380   16.2880    1.4740 C   0  0  0  0  0  0  0  0  0  0  0  0
   -4.2690   15.5440    2.4870 N   0  0  0  0  0  0  0  0  0  0  0  0
   -5.8140    9.2220   -2.2680 C   0  0  0  0  0  0  0  0  0  0  0  0
   -3.1730   15.3280   -1.3950 C   0  0  0  0  0  0  0  0  0  0  0  0
   -3.8920   15.5830   -2.5300 C   0  0  0  0  0  0  0  0  0  0  0  0
   -1.8740   14.9750   -1.3330 C   0  0  0  0  0  0  0  0  0  0  0  0
   -1.2100   14.8710   -2.4730 C   0  0  0  0  0  0  0  0  0  0  0  0
   -3.1980   15.4650   -3.7340 C   0  0  0  0  0  0  0  0  0  0  0  0
   -1.8270   15.1020   -3.6980 C   0  0  0  0  0  0  0  0  0  0  0  0
    0.4200   14.4620   -2.6040 S   0  0  0  0  0  0  0  0  0  0  0  0
    0.2150   14.6000   -4.2790 C   0  0  0  0  0  0  0  0  0  0  0  0
   -0.9710   14.9370   -4.7510 N   0  0  0  0  0  0  0  0  0  0  0  0
    1.3900   14.3290   -5.1000 C   0  0  0  0  0  0  0  0  0  0  0  0
    1.9750   12.9480   -4.8550 C   0  0  0  0  0  0  0  0  0  0  0  0
    1.3540   12.2470   -3.6660 C   0  0  0  0  0  0  0  0  0  0  0  0
    0.4040   11.3520   -3.9960 O   0  0  0  0  0  0  0  0  0  0  0  0
    1.6840   12.4480   -2.5030 O   0  0  0  0  0  0  0  0  0  0  0  0
  1  2  1  1
  2  3  1  0
  1  4  2  0
  1  5  1  0
  5  6  2  0
  5  7  1  0
  3  8  1  0
  3  9  2  0
  6 10  1  0
  7 11  2  0
  9 12  1  0
  8 13  1  0
 12 13  2  0
 10 14  2  0
 11 14  1  0
  9 15  1  0
 15 16  2  0
 15 17  1  0
 17 18  2  0
 16 19  1  0
 18 20  1  0
 19 20  2  0
 18 21  1  0
 21 22  1  0
 20 23  1  0
 22 23  2  0
 22 24  1  0
 24 25  1  0
 25 26  1  0
 26 27  1  0
 26 28  2  0
M  END
