mac-x0381-mac-x0138
     RDKit          3D

 27 30  0  0  0  0  0  0  0  0999 V2000
   -8.0160   14.1160    4.4620 N   0  0  0  0  0  0  0  0  0  0  0  0
   -8.4110   14.7400    3.3180 C   0  0  0  0  0  0  0  0  0  0  0  0
   -7.6310   14.8790    2.3230 N   0  0  0  0  0  0  0  0  0  0  0  0
   -9.7480   15.2500    3.1700 C   0  0  0  0  0  0  0  0  0  0  0  0
   -6.2790   14.4260    2.3260 C   0  0  0  0  0  0  0  0  0  0  0  0
   -9.9430   15.8880    1.9640 C   0  0  0  0  0  0  0  0  0  0  0  0
  -10.7410   15.1120    4.1260 C   0  0  0  0  0  0  0  0  0  0  0  0
   -5.5100   14.7660    1.0680 C   0  0  0  0  0  0  0  0  0  0  0  0
  -11.1740   16.4170    1.6540 C   0  0  0  0  0  0  0  0  0  0  0  0
  -11.9990   15.6460    3.8290 C   0  0  0  0  0  0  0  0  0  0  0  0
   -4.3380   15.4380    1.6120 N   0  0  0  0  0  0  0  0  0  0  0  0
  -12.2240   16.2970    2.5930 C   0  0  0  0  0  0  0  0  0  0  0  0
  -11.3830   17.0550    0.4300 C   0  0  0  0  0  0  0  0  0  0  0  0
  -13.4760   16.8290    2.2660 C   0  0  0  0  0  0  0  0  0  0  0  0
  -12.6350   17.5730    0.1170 C   0  0  0  0  0  0  0  0  0  0  0  0
   -3.1680   15.0440    0.9820 C   0  0  0  0  0  0  0  0  0  0  0  0
  -13.6800   17.4590    1.0360 C   0  0  0  0  0  0  0  0  0  0  0  0
   -3.1000   15.0650   -0.4190 C   0  0  0  0  0  0  0  0  0  0  0  0
   -2.0740   14.6370    1.6870 N   0  0  0  0  0  0  0  0  0  0  0  0
   -4.0350   15.4100   -1.3880 N   0  0  0  0  0  0  0  0  0  0  0  0
   -1.8950   14.6800   -0.9880 C   0  0  0  0  0  0  0  0  0  0  0  0
   -0.9720   14.2840    1.0170 C   0  0  0  0  0  0  0  0  0  0  0  0
    0.0820   13.8790    1.7860 N   0  0  0  0  0  0  0  0  0  0  0  0
   -2.1040   14.8090   -2.3390 N   0  0  0  0  0  0  0  0  0  0  0  0
   -3.3920   15.2420   -2.5270 C   0  0  0  0  0  0  0  0  0  0  0  0
   -0.7890   14.2810   -0.3250 N   0  0  0  0  0  0  0  0  0  0  0  0
   -1.1610   14.5470   -3.3950 C   0  0  0  0  0  0  0  0  0  0  0  0
  1  2  1  0
  2  3  2  3
  2  4  1  0
  3  5  1  0
  4  6  2  0
  4  7  1  0
  5  8  1  0
  6  9  1  0
  7 10  2  0
  8 11  1  0
  9 12  2  0
 10 12  1  0
  9 13  1  0
 12 14  1  0
 13 15  2  0
 11 16  1  0
 14 17  2  0
 15 17  1  0
 16 18  1  0
 16 19  2  0
 18 20  1  0
 18 21  2  0
 19 22  1  0
 22 23  1  0
 21 24  1  0
 20 25  2  0
 24 25  1  0
 21 26  1  0
 22 26  2  0
 24 27  1  0
M  END
