mac-x0159-diamond-x0849_0_A
     RDKit          3D

 17 19  0  0  0  0  0  0  0  0999 V2000
   -4.3980   15.0960    0.7540 N   0  0  0  0  0  0  0  0  0  0  0  0
   -3.3720   14.6980   -0.1830 C   0  0  2  0  0  0  0  0  0  0  0  0
   -2.0650   15.4560    0.0530 C   0  0  2  0  0  0  0  0  0  0  0  0
   -3.9330   15.0270   -1.4760 N   0  0  0  0  0  0  0  0  0  0  0  0
   -2.9170   15.3910   -2.4660 C   0  0  0  0  0  0  0  0  0  0  0  0
   -1.0600   15.0700   -1.0290 C   0  0  2  0  0  0  0  0  0  0  0  0
   -1.3280   15.3050    1.3000 N   0  0  0  0  0  0  0  0  0  0  0  0
   -1.6390   14.7180   -2.2930 N   0  0  0  0  0  0  0  0  0  0  0  0
   -0.2210   14.0820   -0.3850 N   0  0  0  0  0  0  0  0  0  0  0  0
   -0.0760   14.6560    0.9500 C   0  0  0  0  0  0  0  0  0  0  0  0
   -0.8040   14.6030   -3.4850 C   0  0  0  0  0  0  0  0  0  0  0  0
   -0.4000   15.8850   -4.1690 C   0  0  0  0  0  0  0  0  0  0  0  0
    0.8760   16.4280   -4.1900 C   0  0  0  0  0  0  0  0  0  0  0  0
   -1.3440   16.6400   -4.8670 N   0  0  0  0  0  0  0  0  0  0  0  0
   -0.7820   17.7090   -5.3900 C   0  0  0  0  0  0  0  0  0  0  0  0
    0.8870   17.8860   -5.0870 S   0  0  0  0  0  0  0  0  0  0  0  0
   -1.4990   18.7290   -6.2020 C   0  0  0  0  0  0  0  0  0  0  0  0
  2  1  1  1
  2  3  1  0
  2  4  1  0
  4  5  1  0
  3  6  1  0
  3  7  1  1
  5  8  1  0
  6  8  1  0
  6  9  1  1
  7 10  1  0
  9 10  1  0
  8 11  1  0
 11 12  1  0
 12 13  2  0
 12 14  1  0
 14 15  2  0
 13 16  1  0
 15 16  1  0
 15 17  1  0
M  END
