mac-x0116-diamond-x0910_1_A
     RDKit          3D

 22 25  0  0  0  0  0  0  0  0999 V2000
   -5.0220   14.0950    2.1540 C   0  0  0  0  0  0  0  0  0  0  0  0
   -4.7200   14.9320    1.0300 N   0  0  0  0  0  0  0  0  0  0  0  0
   -3.6330   14.8160    0.1920 C   0  0  0  0  0  0  0  0  0  0  0  0
   -5.8680   12.8940    1.9320 C   0  0  0  0  0  0  0  0  0  0  0  0
   -5.9950   12.4210    0.6530 O   0  0  0  0  0  0  0  0  0  0  0  0
   -6.5930   12.1130    2.8000 C   0  0  0  0  0  0  0  0  0  0  0  0
   -5.8350   15.1400    0.2670 N   0  0  0  0  0  0  0  0  0  0  0  0
   -7.1990   11.1080    2.0210 C   0  0  0  0  0  0  0  0  0  0  0  0
   -6.8050   11.3360    0.7220 C   0  0  0  0  0  0  0  0  0  0  0  0
   -3.9150   14.8460   -1.1650 N   0  0  0  0  0  0  0  0  0  0  0  0
   -2.3340   14.6770    0.4910 C   0  0  0  0  0  0  0  0  0  0  0  0
   -7.1570   14.7430    0.3940 C   0  0  0  0  0  0  0  0  0  0  0  0
   -5.7730   15.8620   -0.8760 C   0  0  0  0  0  0  0  0  0  0  0  0
   -7.6480   14.0060    1.4120 N   0  0  0  0  0  0  0  0  0  0  0  0
   -2.9760   14.7620   -2.1310 C   0  0  0  0  0  0  0  0  0  0  0  0
   -1.3690   14.5850   -0.6140 C   0  0  0  0  0  0  0  0  0  0  0  0
   -1.6220   14.5950    1.6520 N   0  0  0  0  0  0  0  0  0  0  0  0
   -7.8130   15.2140   -0.6400 N   0  0  0  0  0  0  0  0  0  0  0  0
   -6.9380   15.9180   -1.4350 N   0  0  0  0  0  0  0  0  0  0  0  0
   -1.7170   14.6300   -1.9300 N   0  0  0  0  0  0  0  0  0  0  0  0
   -0.1770   14.4710   -0.1420 N   0  0  0  0  0  0  0  0  0  0  0  0
   -0.4000   14.4840    1.2290 C   0  0  0  0  0  0  0  0  0  0  0  0
  1  2  1  0
  2  3  1  0
  1  4  1  0
  4  5  1  0
  4  6  2  0
  2  7  1  0
  6  8  1  0
  5  9  1  0
  8  9  2  0
  3 10  1  0
  3 11  2  0
  7 12  1  0
  7 13  1  0
 12 14  1  0
 10 15  1  0
 11 16  1  0
 11 17  1  0
 12 18  2  0
 13 19  2  0
 18 19  1  0
 15 20  2  0
 16 20  1  0
 16 21  2  0
 17 22  2  0
 21 22  1  0
M  END
