mac-x0441-diamond-x0844_0_A
     RDKit          3D

 28 30  0  0  0  0  0  0  0  0999 V2000
    0.4100   10.9130   -3.4940 O   0  0  0  0  0  0  0  0  0  0  0  0
    0.7980   12.2040   -3.5880 C   0  0  0  0  0  0  0  0  0  0  0  0
    1.3680   12.7010   -2.6250 O   0  0  0  0  0  0  0  0  0  0  0  0
    0.4380   12.8830   -4.9110 C   0  0  2  0  0  0  0  0  0  0  0  0
   -0.6420   13.9670   -4.7050 C   0  0  0  0  0  0  0  0  0  0  0  0
    0.1050   11.9360   -5.9930 N   0  0  0  0  0  0  0  0  0  0  0  0
   -1.7230   13.6360   -3.6600 C   0  0  0  0  0  0  0  0  0  0  0  0
    0.9160   11.9000   -7.0930 N   0  0  0  0  0  0  0  0  0  0  0  0
   -0.9310   11.0390   -6.1040 C   0  0  0  0  0  0  0  0  0  0  0  0
   -2.2740   14.8040   -2.8460 C   0  0  0  0  0  0  0  0  0  0  0  0
    0.3750   10.9660   -7.9150 C   0  0  0  0  0  0  0  0  0  0  0  0
   -0.7750   10.4180   -7.3260 C   0  0  0  0  0  0  0  0  0  0  0  0
   -2.0280   10.7450   -5.1400 C   0  0  0  0  0  0  0  0  0  0  0  0
    0.8830   10.5260   -9.2740 C   0  0  0  0  0  0  0  0  0  0  0  0
   -3.4490   14.3400   -2.1810 O   0  0  0  0  0  0  0  0  0  0  0  0
   -1.6890    9.3660   -7.8380 C   0  0  0  0  0  0  0  0  0  0  0  0
   -3.0790    9.8010   -5.7680 C   0  0  0  0  0  0  0  0  0  0  0  0
    1.5540    9.3470   -9.1920 F   0  0  0  0  0  0  0  0  0  0  0  0
   -0.1210   10.3150  -10.1550 F   0  0  0  0  0  0  0  0  0  0  0  0
    1.6950   11.3800   -9.9200 F   0  0  0  0  0  0  0  0  0  0  0  0
   -2.4560    8.7270   -6.6730 C   0  0  0  0  0  0  0  0  0  0  0  0
   -4.0860   15.2960   -1.3210 C   0  0  2  0  0  0  0  0  0  0  0  0
   -3.5110   15.1990    0.0590 C   0  0  0  0  0  0  0  0  0  0  0  0
   -5.6010   15.1010   -1.4130 C   0  0  0  0  0  0  0  0  0  0  0  0
   -4.2550   14.9910    1.1370 C   0  0  0  0  0  0  0  0  0  0  0  0
   -6.3400   14.8960   -0.1050 C   0  0  0  0  0  0  0  0  0  0  0  0
   -7.5660   14.7840   -0.0630 O   0  0  0  0  0  0  0  0  0  0  0  0
   -5.6030   14.8380    1.0520 N   0  0  0  0  0  0  0  0  0  0  0  0
  1  2  1  0
  2  3  2  0
  2  4  1  0
  4  5  1  1
  4  6  1  0
  5  7  1  0
  6  8  1  0
  6  9  1  0
  7 10  1  0
  8 11  2  0
  9 12  2  0
 11 12  1  0
  9 13  1  0
 11 14  1  0
 10 15  1  0
 12 16  1  0
 13 17  1  0
 14 18  1  0
 14 19  1  0
 14 20  1  0
 16 21  1  0
 17 21  1  0
 22 15  1  6
 22 23  1  0
 22 24  1  0
 23 25  2  0
 24 26  1  0
 26 27  2  0
 25 28  1  0
 26 28  1  0
M  END
