mac-x0179-mac-x0373
     RDKit          3D

 30 33  0  0  0  0  0  0  0  0999 V2000
    1.0570   13.2590   -2.1480 O   0  0  0  0  0  0  0  0  0  0  0  0
    0.9080   12.1980   -2.9780 C   0  0  0  0  0  0  0  0  0  0  0  0
    0.7260   11.0270   -2.6620 O   0  0  0  0  0  0  0  0  0  0  0  0
    0.1420   14.2800   -2.1840 C   0  0  0  0  0  0  0  0  0  0  0  0
    1.0000   12.6160   -4.4380 C   0  0  0  0  0  0  0  0  0  0  0  0
    0.3870   15.4730   -2.2140 O   0  0  0  0  0  0  0  0  0  0  0  0
   -1.2870   13.7070   -2.1710 C   0  0  0  0  0  0  0  0  0  0  0  0
    0.2870   11.7520   -5.3610 N   0  0  0  0  0  0  0  0  0  0  0  0
   -1.8150   13.0020   -3.4140 C   0  0  0  0  0  0  0  0  0  0  0  0
   -2.3660   14.4680   -1.4180 C   0  0  0  0  0  0  0  0  0  0  0  0
    0.8260   11.3980   -6.5460 C   0  0  0  0  0  0  0  0  0  0  0  0
   -0.6500   10.8310   -4.9810 C   0  0  0  0  0  0  0  0  0  0  0  0
   -1.4490   13.2510   -4.7480 C   0  0  0  0  0  0  0  0  0  0  0  0
   -2.7690   12.0000   -3.1590 C   0  0  0  0  0  0  0  0  0  0  0  0
   -3.4720   15.0520   -2.0630 C   0  0  0  0  0  0  0  0  0  0  0  0
   -2.2650   14.5680   -0.0250 C   0  0  0  0  0  0  0  0  0  0  0  0
    1.8260   11.8280   -7.0280 O   0  0  0  0  0  0  0  0  0  0  0  0
   -1.1630   10.6750   -3.9000 O   0  0  0  0  0  0  0  0  0  0  0  0
   -0.0250   10.3600   -7.1260 C   0  0  0  0  0  0  0  0  0  0  0  0
   -0.9400   10.0130   -6.1580 C   0  0  0  0  0  0  0  0  0  0  0  0
   -2.0250   12.5070   -5.7840 C   0  0  0  0  0  0  0  0  0  0  0  0
   -3.3400   11.2650   -4.1870 C   0  0  0  0  0  0  0  0  0  0  0  0
   -4.4490   15.7090   -1.3190 C   0  0  0  0  0  0  0  0  0  0  0  0
   -3.2430   15.2280    0.7120 C   0  0  0  0  0  0  0  0  0  0  0  0
   -0.0160    9.7620   -8.3680 C   0  0  0  0  0  0  0  0  0  0  0  0
   -1.9120    9.0530   -6.3670 C   0  0  0  0  0  0  0  0  0  0  0  0
   -2.9670   11.5160   -5.5000 C   0  0  0  0  0  0  0  0  0  0  0  0
   -4.3280   15.7910    0.0610 C   0  0  0  0  0  0  0  0  0  0  0  0
   -0.9860    8.7820   -8.6100 C   0  0  0  0  0  0  0  0  0  0  0  0
   -1.9280    8.4310   -7.6170 C   0  0  0  0  0  0  0  0  0  0  0  0
  1  2  1  0
  2  3  2  0
  1  4  1  0
  2  5  1  0
  4  6  2  0
  4  7  1  0
  5  8  1  0
  7  9  1  0
  7 10  1  0
  8 11  1  0
  8 12  1  0
  9 13  2  0
  9 14  1  0
 10 15  2  0
 10 16  1  0
 11 17  2  0
 12 18  2  0
 11 19  1  0
 12 20  1  0
 19 20  2  0
 13 21  1  0
 14 22  2  0
 15 23  1  0
 16 24  2  0
 19 25  1  0
 20 26  1  0
 21 27  2  0
 22 27  1  0
 23 28  2  0
 24 28  1  0
 25 29  2  0
 26 30  2  0
 29 30  1  0
M  END
