mac-x0380-mac-x0223
     RDKit          3D

 28 30  0  0  0  0  0  0  0  0999 V2000
   -1.1610   14.5050   -1.8380 O   0  0  0  0  0  0  0  0  0  0  0  0
   -2.2990   14.9950   -2.3300 C   0  0  0  0  0  0  0  0  0  0  0  0
   -2.3600   15.3430   -3.5300 N   0  0  0  0  0  0  0  0  0  0  0  0
   -3.3210   15.0190   -1.2640 C   0  0  0  0  0  0  0  0  0  0  0  0
   -3.4430   15.9450   -4.2120 C   0  0  0  0  0  0  0  0  0  0  0  0
   -4.6970   15.0510   -1.5260 C   0  0  0  0  0  0  0  0  0  0  0  0
   -2.8630   14.9880    0.0520 C   0  0  0  0  0  0  0  0  0  0  0  0
   -2.8020   16.9450   -5.0250 O   0  0  0  0  0  0  0  0  0  0  0  0
   -5.5980   15.0410   -0.4490 C   0  0  0  0  0  0  0  0  0  0  0  0
   -3.7500   14.9800    1.1080 C   0  0  0  0  0  0  0  0  0  0  0  0
   -5.1160   15.0010    0.8670 C   0  0  0  0  0  0  0  0  0  0  0  0
   -7.3480   15.0700   -0.7710 S   0  0  0  0  0  0  0  0  0  0  0  0
   -1.6750   16.2230   -4.9690 C   0  0  0  0  0  0  0  0  0  0  0  0
   -5.9490   14.9730    1.9900 N   0  0  0  0  0  0  0  0  0  0  0  0
   -7.8710   14.1280    0.6800 C   0  0  0  0  0  0  0  0  0  0  0  0
   -0.3580   16.7220   -4.9000 C   0  0  0  0  0  0  0  0  0  0  0  0
   -1.9160   14.8610   -4.9490 C   0  0  0  0  0  0  0  0  0  0  0  0
   -0.1520   18.0690   -4.9390 O   0  0  0  0  0  0  0  0  0  0  0  0
   -7.2750   14.6330    1.9690 C   0  0  0  0  0  0  0  0  0  0  0  0
   -0.8990   13.9620   -4.8370 C   0  0  0  0  0  0  0  0  0  0  0  0
    0.6820   15.7780   -4.7830 C   0  0  0  0  0  0  0  0  0  0  0  0
   -7.9560   14.7480    2.9960 O   0  0  0  0  0  0  0  0  0  0  0  0
    1.1170   18.4140   -5.4690 C   0  0  0  0  0  0  0  0  0  0  0  0
    0.3960   14.3980   -4.7420 C   0  0  0  0  0  0  0  0  0  0  0  0
    1.4380   13.3360   -4.5860 C   0  0  0  0  0  0  0  0  0  0  0  0
    1.1220   12.4820   -3.3700 C   0  0  0  0  0  0  0  0  0  0  0  0
    0.4990   11.4340   -3.3110 O   0  0  0  0  0  0  0  0  0  0  0  0
    1.6230   13.0340   -2.2440 O   0  0  0  0  0  0  0  0  0  0  0  0
  1  2  1  0
  2  3  2  3
  2  4  1  0
  3  5  1  0
  4  6  2  0
  4  7  1  0
  5  8  1  0
  6  9  1  0
  7 10  2  0
  9 11  2  0
 10 11  1  0
  9 12  1  0
  8 13  1  0
 11 14  1  0
 12 15  1  0
 13 16  2  0
 13 17  1  0
 16 18  1  0
 14 19  1  0
 15 19  1  0
 17 20  2  0
 16 21  1  0
 19 22  2  0
 18 23  1  0
 20 24  1  0
 21 24  2  0
 24 25  1  0
 25 26  1  0
 26 27  2  0
 26 28  1  0
M  END
