mac-x0193-mac-x0348
     RDKit          3D

 25 27  0  0  0  0  0  0  0  0999 V2000
    0.1700   10.5970   -3.4480 O   0  0  0  0  0  0  0  0  0  0  0  0
    0.7480   11.8060   -3.5870 C   0  0  0  0  0  0  0  0  0  0  0  0
    1.7670   12.0830   -2.9760 O   0  0  0  0  0  0  0  0  0  0  0  0
    0.0040   12.7660   -4.5020 C   0  0  2  0  0  0  0  0  0  0  0  0
    0.3250   12.6730   -5.9780 N   0  0  0  0  0  0  0  0  0  0  0  0
    0.3270   14.1230   -3.8000 C   0  0  0  0  0  0  0  0  0  0  0  0
    0.8620   11.6150   -6.7250 C   0  0  0  0  0  0  0  0  0  0  0  0
   -0.0730   15.3690   -4.5190 C   0  0  0  0  0  0  0  0  0  0  0  0
    2.0400   11.4250   -6.7880 O   0  0  0  0  0  0  0  0  0  0  0  0
   -0.0870   10.8410   -7.4180 N   0  0  0  0  0  0  0  0  0  0  0  0
    0.7450   16.4460   -4.7430 C   0  0  0  0  0  0  0  0  0  0  0  0
   -1.3310   15.6730   -5.1010 C   0  0  0  0  0  0  0  0  0  0  0  0
    0.1750    9.9570   -8.6030 C   0  0  0  0  0  0  0  0  0  0  0  0
    0.0480   17.3810   -5.4440 N   0  0  0  0  0  0  0  0  0  0  0  0
   -1.2270   16.9440   -5.6780 C   0  0  0  0  0  0  0  0  0  0  0  0
   -2.5500   14.9770   -5.1980 C   0  0  0  0  0  0  0  0  0  0  0  0
    0.6000   18.6320   -5.8760 C   0  0  0  0  0  0  0  0  0  0  0  0
    1.2350    8.8930   -8.3390 C   0  0  0  0  0  0  0  0  0  0  0  0
    0.5250   10.7050   -9.9030 C   0  0  0  0  0  0  0  0  0  0  0  0
   -3.6200   15.5540   -5.8750 C   0  0  0  0  0  0  0  0  0  0  0  0
   -2.2980   17.5350   -6.3500 C   0  0  0  0  0  0  0  0  0  0  0  0
    1.8480    8.2420   -9.6030 C   0  0  0  0  0  0  0  0  0  0  0  0
    0.6190    9.8180  -11.1600 C   0  0  0  0  0  0  0  0  0  0  0  0
   -3.4870   16.8100   -6.4440 C   0  0  0  0  0  0  0  0  0  0  0  0
    0.9960    8.3710  -10.8640 C   0  0  0  0  0  0  0  0  0  0  0  0
  1  2  1  0
  2  3  2  0
  2  4  1  0
  4  5  1  0
  4  6  1  1
  5  7  1  0
  6  8  1  0
  7  9  2  0
  7 10  1  0
  8 11  2  0
  8 12  1  0
 10 13  1  0
 11 14  1  0
 12 15  2  0
 14 15  1  0
 12 16  1  0
 14 17  1  0
 13 18  1  0
 13 19  1  0
 16 20  2  0
 15 21  1  0
 18 22  1  0
 19 23  1  0
 20 24  1  0
 21 24  2  0
 22 25  1  0
 23 25  1  0
M  END
