mac-x0439-mac-x0527
     RDKit          3D

 28 31  0  0  0  0  0  0  0  0999 V2000
   -2.9590   16.2780   -3.9650 N   0  0  0  0  0  0  0  0  0  0  0  0
   -3.0280   15.0920   -3.0650 C   0  0  1  0  0  0  0  0  0  0  0  0
   -1.8030   14.3430   -3.0030 N   0  0  0  0  0  0  0  0  0  0  0  0
   -1.7980   16.8910   -4.5310 C   0  0  0  0  0  0  0  0  0  0  0  0
   -0.4730   16.9060   -3.7680 C   0  0  1  0  0  0  0  0  0  0  0  0
   -1.7570   17.5100   -5.7460 C   0  0  0  0  0  0  0  0  0  0  0  0
   -3.6980   15.2000   -1.6520 C   0  0  0  0  0  0  0  0  0  0  0  0
   -1.0830   14.3260   -4.2660 C   0  0  0  0  0  0  0  0  0  0  0  0
   -0.0390   15.7850   -2.8860 C   0  0  0  0  0  0  0  0  0  0  0  0
    0.6730   16.7960   -4.7350 C   0  0  0  0  0  0  0  0  0  0  0  0
   -0.5310   18.1220   -6.2680 C   0  0  0  0  0  0  0  0  0  0  0  0
   -5.0880   15.2140   -1.5120 C   0  0  0  0  0  0  0  0  0  0  0  0
   -2.9030   15.2540   -0.5270 N   0  0  0  0  0  0  0  0  0  0  0  0
    1.0870   15.2410   -3.3660 C   0  0  0  0  0  0  0  0  0  0  0  0
    1.5320   15.8370   -4.5220 N   0  0  0  0  0  0  0  0  0  0  0  0
    0.6890   17.7970   -5.8100 C   0  0  0  0  0  0  0  0  0  0  0  0
   -0.9760   12.9790   -4.8780 C   0  0  0  0  0  0  0  0  0  0  0  0
   -5.7150   15.2710   -0.3050 N   0  0  0  0  0  0  0  0  0  0  0  0
   -3.5350   15.3100    0.6740 C   0  0  0  0  0  0  0  0  0  0  0  0
    1.7720   14.1080   -2.6710 C   0  0  0  0  0  0  0  0  0  0  0  0
   -1.8780   11.9730   -4.5160 C   0  0  0  0  0  0  0  0  0  0  0  0
    0.0280   12.7140   -5.8100 C   0  0  0  0  0  0  0  0  0  0  0  0
   -4.9080   15.3150    0.7830 C   0  0  0  0  0  0  0  0  0  0  0  0
    3.1040   14.2740   -2.5850 O   0  0  0  0  0  0  0  0  0  0  0  0
    1.2460   13.1140   -2.1970 O   0  0  0  0  0  0  0  0  0  0  0  0
   -1.7740   10.7100   -5.0860 C   0  0  0  0  0  0  0  0  0  0  0  0
    0.1320   11.4540   -6.3790 C   0  0  0  0  0  0  0  0  0  0  0  0
   -0.7700   10.4500   -6.0180 C   0  0  0  0  0  0  0  0  0  0  0  0
  2  1  1  1
  2  3  1  0
  1  4  1  0
  4  5  1  0
  4  6  2  0
  2  7  1  0
  3  8  1  0
  5  9  1  1
  5 10  1  0
  6 11  1  0
  7 12  2  0
  7 13  1  0
  9 14  2  0
 10 15  2  0
 14 15  1  0
 10 16  1  0
 11 16  2  0
  8 17  1  0
 12 18  1  0
 13 19  2  0
 14 20  1  0
 17 21  2  0
 17 22  1  0
 18 23  2  0
 19 23  1  0
 20 24  1  0
 20 25  2  0
 21 26  1  0
 22 27  2  0
 26 28  2  0
 27 28  1  0
M  END
