mac-x0337-mac-x0148
     RDKit          3D

 29 33  0  0  0  0  0  0  0  0999 V2000
   -5.3390    9.0850   -2.2620 C   0  0  0  0  0  0  0  0  0  0  0  0
   -5.2410   10.5070   -1.7990 C   0  0  0  0  0  0  0  0  0  0  0  0
   -6.2960   11.0560   -1.0680 C   0  0  0  0  0  0  0  0  0  0  0  0
   -4.1170   11.2920   -2.0750 C   0  0  0  0  0  0  0  0  0  0  0  0
   -4.0590   12.6180   -1.6260 C   0  0  0  0  0  0  0  0  0  0  0  0
   -6.2440   12.3640   -0.6210 C   0  0  0  0  0  0  0  0  0  0  0  0
   -5.1430   13.1530   -0.8930 C   0  0  0  0  0  0  0  0  0  0  0  0
   -5.2550   14.8200   -0.2640 S   0  0  2  0  0  0  0  0  0  0  0  0
   -5.1770   15.7070   -1.4160 O   0  0  0  0  0  0  0  0  0  0  0  0
   -4.4450   15.0450    1.0050 N   0  0  0  0  0  0  0  0  0  0  0  0
   -6.8090   15.0010    0.2720 N   0  0  0  0  0  0  0  0  0  0  0  0
   -3.3910   14.9120    0.1780 N   0  0  0  0  0  0  0  0  0  0  0  0
   -2.0740   14.8260    0.2730 C   0  0  0  0  0  0  0  0  0  0  0  0
   -3.8660   14.8480   -1.0710 C   0  0  0  0  0  0  0  0  0  0  0  0
   -1.2970   14.8670    1.3530 N   0  0  0  0  0  0  0  0  0  0  0  0
   -1.7020   14.6720   -1.0660 C   0  0  0  0  0  0  0  0  0  0  0  0
   -2.8380   14.6940   -1.8730 C   0  0  0  0  0  0  0  0  0  0  0  0
   -0.0420   14.7420    0.9520 C   0  0  0  0  0  0  0  0  0  0  0  0
   -0.3990   14.5300   -1.3720 C   0  0  0  0  0  0  0  0  0  0  0  0
    0.0370   14.3310   -2.7000 N   0  0  0  0  0  0  0  0  0  0  0  0
    0.4500   14.5770   -0.3170 N   0  0  0  0  0  0  0  0  0  0  0  0
   -0.8000   14.7300   -3.9190 C   0  0  2  0  0  0  0  0  0  0  0  0
    0.7780   13.0790   -2.7530 C   0  0  0  0  0  0  0  0  0  0  0  0
   -2.3130   14.9870   -3.8010 C   0  0  0  0  0  0  0  0  0  0  0  0
   -0.8100   13.7250   -5.1150 C   0  0  2  0  0  0  0  0  0  0  0  0
   -0.0830   12.0140   -3.4030 C   0  0  0  0  0  0  0  0  0  0  0  0
   -2.2460   13.6950   -5.6360 C   0  0  0  0  0  0  0  0  0  0  0  0
   -2.8930   14.8410   -5.1010 O   0  0  0  0  0  0  0  0  0  0  0  0
   -0.2920   12.3220   -4.8740 C   0  0  0  0  0  0  0  0  0  0  0  0
  1  2  1  0
  2  3  2  0
  2  4  1  0
  4  5  2  0
  3  6  1  0
  5  7  1  0
  6  7  2  0
  7  8  1  0
  8  9  2  0
  8 10  2  0
  8 11  1  1
 10 12  1  0
 12 13  1  0
 12 14  1  0
 13 15  2  0
 13 16  1  0
 14 17  2  0
 16 17  1  0
 15 18  1  0
 16 19  2  0
 19 20  1  0
 18 21  2  0
 19 21  1  0
 20 22  1  0
 20 23  1  0
 22 24  1  1
 22 25  1  0
 23 26  1  0
 25 27  1  1
 24 28  1  0
 27 28  1  0
 25 29  1  0
 26 29  1  0
M  END
