mac-x0284-mac-x0321
     RDKit          3D

 12 13  0  0  0  0  0  0  0  0999 V2000
   -4.0700   15.4990    0.8420 C   0  0  0  0  0  0  0  0  0  0  0  0
   -3.5470   15.2010   -0.5360 C   0  0  0  0  0  0  0  0  0  0  0  0
   -4.4270   15.2090   -1.6400 C   0  0  0  0  0  0  0  0  0  0  0  0
   -2.1880   14.9210   -0.7240 C   0  0  0  0  0  0  0  0  0  0  0  0
   -1.7450   14.6670   -2.0130 C   0  0  0  0  0  0  0  0  0  0  0  0
   -3.9610   14.9350   -2.9290 C   0  0  0  0  0  0  0  0  0  0  0  0
   -0.3680   14.3680   -2.5330 C   0  0  0  0  0  0  0  0  0  0  0  0
   -2.6270   14.6670   -3.0980 C   0  0  0  0  0  0  0  0  0  0  0  0
   -2.0080   14.3630   -4.3130 N   0  0  0  0  0  0  0  0  0  0  0  0
    0.2670   13.3020   -1.8880 O   0  0  0  0  0  0  0  0  0  0  0  0
    0.4770   15.4720   -2.4640 O   0  0  0  0  0  0  0  0  0  0  0  0
   -0.7640   14.1630   -4.0060 C   0  0  0  0  0  0  0  0  0  0  0  0
  1  2  1  0
  2  3  2  0
  2  4  1  0
  4  5  2  0
  3  6  1  0
  5  7  1  0
  5  8  1  0
  6  8  2  0
  8  9  1  0
  7 10  1  0
  7 11  1  0
  7 12  1  0
  9 12  2  0
M  END
