mac-x0358-diamond-x0685_0_A
     RDKit          3D

 22 23  0  0  0  0  0  0  0  0999 V2000
    1.6620   12.9150   -2.1850 O   0  0  0  0  0  0  0  0  0  0  0  0
    1.0600   12.2390   -3.1770 C   0  0  0  0  0  0  0  0  0  0  0  0
    0.5980   11.1290   -2.9650 O   0  0  0  0  0  0  0  0  0  0  0  0
    1.0430   12.9880   -4.4900 C   0  0  0  0  0  0  0  0  0  0  0  0
   -0.3680   13.3070   -4.8960 C   0  0  0  0  0  0  0  0  0  0  0  0
   -0.9910   12.8660   -6.0530 C   0  0  0  0  0  0  0  0  0  0  0  0
   -1.1080   14.0780   -4.0310 C   0  0  0  0  0  0  0  0  0  0  0  0
   -0.3400   12.0760   -6.9490 O   0  0  0  0  0  0  0  0  0  0  0  0
   -2.3190   13.2010   -6.3550 C   0  0  0  0  0  0  0  0  0  0  0  0
   -2.4270   14.3900   -4.3060 C   0  0  0  0  0  0  0  0  0  0  0  0
   -3.0920   15.0930   -3.3010 C   0  0  0  0  0  0  0  0  0  0  0  0
   -3.0490   13.9760   -5.4700 C   0  0  0  0  0  0  0  0  0  0  0  0
   -3.6430   15.2980   -2.2810 C   0  0  0  0  0  0  0  0  0  0  0  0
   -4.2790   15.2340   -1.0290 C   0  0  0  0  0  0  0  0  0  0  0  0
   -3.5690   15.3180    0.1600 C   0  0  0  0  0  0  0  0  0  0  0  0
   -5.6410   15.0670   -0.9710 C   0  0  0  0  0  0  0  0  0  0  0  0
   -4.2700   15.2430    1.3550 C   0  0  0  0  0  0  0  0  0  0  0  0
   -6.3370   14.9870    0.1730 N   0  0  0  0  0  0  0  0  0  0  0  0
   -5.6550   15.0820    1.3250 C   0  0  0  0  0  0  0  0  0  0  0  0
   -6.3370   15.0410    2.5450 N   0  0  0  0  0  0  0  0  0  0  0  0
   -7.7520   14.7130    2.5530 C   0  0  0  0  0  0  0  0  0  0  0  0
   -7.9750   13.3140    3.0940 C   0  0  0  0  0  0  0  0  0  0  0  0
  1  2  1  0
  2  3  2  0
  2  4  1  0
  4  5  1  0
  5  6  2  0
  5  7  1  0
  6  8  1  0
  6  9  1  0
  7 10  2  0
 10 11  1  0
  9 12  2  0
 10 12  1  0
 11 13  3  0
 13 14  1  0
 14 15  2  0
 14 16  1  0
 15 17  1  0
 16 18  2  0
 17 19  2  0
 18 19  1  0
 19 20  1  0
 20 21  1  0
 21 22  1  0
M  END
