mac-x0224-diamond-x0864_0_A
     RDKit          3D

 22 23  0  0  0  0  0  0  0  0999 V2000
   -4.9390   15.0610    1.2130 C   0  0  0  0  0  0  0  0  0  0  0  0
   -3.1320   14.9600    1.1630 S   0  0  0  0  0  0  0  0  0  0  0  0
   -2.7910   14.8460   -0.5880 C   0  0  0  0  0  0  0  0  0  0  0  0
   -1.5520   14.3960   -1.0560 C   0  0  0  0  0  0  0  0  0  0  0  0
   -3.7780   15.2180   -1.5170 C   0  0  0  0  0  0  0  0  0  0  0  0
   -1.2840   14.3150   -2.4310 C   0  0  0  0  0  0  0  0  0  0  0  0
   -3.5160   15.1390   -2.8900 C   0  0  0  0  0  0  0  0  0  0  0  0
    0.0490   13.8420   -2.9080 C   0  0  0  0  0  0  0  0  0  0  0  0
   -2.2750   14.6910   -3.3400 C   0  0  0  0  0  0  0  0  0  0  0  0
   -2.0800   14.6430   -4.6910 O   0  0  0  0  0  0  0  0  0  0  0  0
    0.9790   14.5800   -2.5670 O   0  0  0  0  0  0  0  0  0  0  0  0
    0.3030   12.6290   -3.6030 N   0  0  0  0  0  0  0  0  0  0  0  0
    1.0640   11.5690   -2.9880 C   0  0  0  0  0  0  0  0  0  0  0  0
   -0.4020   12.1320   -4.7860 N   0  0  0  0  0  0  0  0  0  0  0  0
    0.2110   10.5010   -2.5870 O   0  0  0  0  0  0  0  0  0  0  0  0
   -1.4110   11.2480   -4.4690 C   0  0  0  0  0  0  0  0  0  0  0  0
    0.3840   11.8660   -5.9510 C   0  0  0  0  0  0  0  0  0  0  0  0
    1.5800   12.1650   -6.0410 O   0  0  0  0  0  0  0  0  0  0  0  0
   -2.0330   10.5020   -5.3920 C   0  0  0  0  0  0  0  0  0  0  0  0
   -0.3000   11.1690   -7.1330 C   0  0  0  0  0  0  0  0  0  0  0  0
   -1.6840   10.5910   -6.8400 C   0  0  1  0  0  0  0  0  0  0  0  0
   -1.9410    8.8280   -7.6680 Br  0  0  0  0  0  0  0  0  0  0  0  0
  1  2  1  0
  2  3  1  0
  3  4  2  0
  3  5  1  0
  4  6  1  0
  5  7  2  0
  6  8  1  0
  6  9  2  0
  7  9  1  0
  9 10  1  0
  8 11  2  0
  8 12  1  0
 12 13  1  0
 12 14  1  0
 13 15  1  0
 14 16  1  0
 14 17  1  0
 17 18  2  0
 16 19  2  0
 17 20  1  0
 19 21  1  0
 20 21  1  0
 21 22  1  1
M  END
