mac-x0387-diamond-x0471_0_A
     RDKit          3D

 26 29  0  0  0  0  0  0  0  0999 V2000
   -3.6580   15.1340    1.6690 N   0  0  0  0  0  0  0  0  0  0  0  0
   -2.4470   15.0000    0.9850 C   0  0  0  0  0  0  0  0  0  0  0  0
   -1.3660   15.0450    1.7470 N   0  0  0  0  0  0  0  0  0  0  0  0
   -2.3600   14.8230   -0.3990 C   0  0  0  0  0  0  0  0  0  0  0  0
   -1.0790   14.7270   -0.9780 C   0  0  0  0  0  0  0  0  0  0  0  0
   -0.1610   14.9320    1.1660 C   0  0  0  0  0  0  0  0  0  0  0  0
   -3.5880   14.6680   -1.2750 C   0  0  2  0  0  0  0  0  0  0  0  0
    0.0410   14.7840   -0.1710 C   0  0  0  0  0  0  0  0  0  0  0  0
   -0.8830   14.5600   -2.4120 C   0  0  0  0  0  0  0  0  0  0  0  0
   -3.3300   14.3230   -2.7720 C   0  0  0  0  0  0  0  0  0  0  0  0
   -4.8760   15.5940   -1.1470 C   0  0  0  0  0  0  0  0  0  0  0  0
   -3.6820   13.3810   -0.4680 C   0  0  0  0  0  0  0  0  0  0  0  0
   -1.9120   14.3800   -3.2410 C   0  0  0  0  0  0  0  0  0  0  0  0
   -5.9380   14.9390   -0.3470 C   0  0  0  0  0  0  0  0  0  0  0  0
   -4.6980   13.0180    0.2930 C   0  0  0  0  0  0  0  0  0  0  0  0
   -7.2210   15.3210   -0.1170 N   0  0  0  0  0  0  0  0  0  0  0  0
   -5.8390   13.7800    0.3330 C   0  0  0  0  0  0  0  0  0  0  0  0
   -7.7870   14.3960    0.7350 C   0  0  0  0  0  0  0  0  0  0  0  0
   -6.9450   13.4420    1.0110 N   0  0  0  0  0  0  0  0  0  0  0  0
   -9.1730   14.5130    1.2450 C   0  0  0  0  0  0  0  0  0  0  0  0
   -9.1710   14.1030    2.6410 N   0  0  0  0  0  0  0  0  0  0  0  0
   -9.0620   15.0280    3.6650 C   0  0  0  0  0  0  0  0  0  0  0  0
   -9.2570   16.2270    3.4800 O   0  0  0  0  0  0  0  0  0  0  0  0
   -8.7020   14.4290    5.0240 C   0  0  0  0  0  0  0  0  0  0  0  0
   -9.8860   13.6470    5.5960 C   0  0  0  0  0  0  0  0  0  0  0  0
   -8.2620   15.5260    5.9950 C   0  0  0  0  0  0  0  0  0  0  0  0
  1  2  1  0
  2  3  2  0
  2  4  1  0
  4  5  2  0
  3  6  1  0
  4  7  1  0
  5  8  1  0
  6  8  2  0
  5  9  1  0
  7 10  1  6
  7 11  1  0
  7 12  1  0
  9 13  2  0
 10 13  1  0
 11 14  1  0
 12 15  2  0
 14 16  1  0
 14 17  2  0
 15 17  1  0
 16 18  1  0
 17 19  1  0
 18 19  2  0
 18 20  1  0
 20 21  1  0
 21 22  1  0
 22 23  2  0
 22 24  1  0
 24 25  1  0
 24 26  1  0
M  END
