mac-x0379-diamond-x0591_0_A
     RDKit          3D

 15 16  0  0  0  0  0  0  0  0999 V2000
   -5.4700   15.1640   -0.0970 C   0  0  2  0  0  0  0  0  0  0  0  0
   -5.6020   14.0900    0.9860 C   0  0  0  0  0  0  0  0  0  0  0  0
   -6.7630   15.2630   -0.8620 C   0  0  0  0  0  0  0  0  0  0  0  0
   -4.3520   14.9820   -1.0750 C   0  0  0  0  0  0  0  0  0  0  0  0
   -7.7700   14.6090   -0.6180 O   0  0  0  0  0  0  0  0  0  0  0  0
   -4.5000   14.8770   -2.3930 N   0  0  0  0  0  0  0  0  0  0  0  0
   -2.7270   14.9150   -0.4690 S   0  0  0  0  0  0  0  0  0  0  0  0
   -3.2590   14.7530   -2.9570 C   0  0  0  0  0  0  0  0  0  0  0  0
   -2.1680   14.7590   -2.1040 C   0  0  0  0  0  0  0  0  0  0  0  0
   -0.9060   14.6310   -2.8610 C   0  0  0  0  0  0  0  0  0  0  0  0
   -2.4350   14.5770   -4.3770 S   0  0  0  0  0  0  0  0  0  0  0  0
   -0.8590   14.5090   -4.2080 N   0  0  0  0  0  0  0  0  0  0  0  0
    0.2960   14.6250   -2.2740 O   0  0  0  0  0  0  0  0  0  0  0  0
   -2.3170   14.4200   -5.9560 O   0  0  0  0  0  0  0  0  0  0  0  0
   -3.6320   14.5510   -5.4540 O   0  0  0  0  0  0  0  0  0  0  0  0
  1  2  1  1
  1  3  1  0
  1  4  1  0
  3  5  2  0
  4  6  2  0
  4  7  1  0
  6  8  1  0
  7  9  1  0
  8  9  2  0
  9 10  1  0
  8 11  1  0
 10 12  2  0
 11 12  1  0
 10 13  1  0
 11 14  2  0
 11 15  2  0
M  END
