mac-x0188-mac-x0441
     RDKit          3D

 30 34  0  0  0  0  0  0  0  0999 V2000
    0.5800   12.6950   -4.7320 C   0  0  2  0  0  0  0  0  0  0  0  0
    0.6260   12.0580   -3.2860 C   0  0  0  0  0  0  0  0  0  0  0  0
    0.7800   10.7580   -3.1780 O   0  0  0  0  0  0  0  0  0  0  0  0
   -0.6490   13.3680   -4.4460 C   0  0  0  0  0  0  0  0  0  0  0  0
    0.4390   11.6450   -5.7830 N   0  0  0  0  0  0  0  0  0  0  0  0
    0.4620   12.6110   -2.1320 N   0  0  0  0  0  0  0  0  0  0  0  0
   -1.6670   13.4740   -5.3020 O   0  0  0  0  0  0  0  0  0  0  0  0
   -0.9060   13.9160   -3.2430 C   0  0  0  0  0  0  0  0  0  0  0  0
    0.3760   11.9850   -7.2030 N   0  0  0  0  0  0  0  0  0  0  0  0
   -0.4080   10.4400   -5.6150 C   0  0  2  0  0  0  0  0  0  0  0  0
    0.1260   13.9000   -2.2450 C   0  0  0  0  0  0  0  0  0  0  0  0
   -2.6980   14.0780   -4.6070 N   0  0  0  0  0  0  0  0  0  0  0  0
   -2.2340   14.3040   -3.3560 C   0  0  0  0  0  0  0  0  0  0  0  0
    0.7720   10.6610   -7.7450 C   0  0  1  0  0  0  0  0  0  0  0  0
   -0.1770    9.7120   -6.9760 C   0  0  2  0  0  0  0  0  0  0  0  0
   -1.8590   10.6780   -5.2860 C   0  0  0  0  0  0  0  0  0  0  0  0
    0.6020   14.8550   -1.6460 O   0  0  0  0  0  0  0  0  0  0  0  0
    0.9060   10.4450   -9.2680 C   0  0  0  0  0  0  0  0  0  0  0  0
   -3.0710   14.8260   -2.3180 C   0  0  0  0  0  0  0  0  0  0  0  0
   -1.3910    9.1420   -7.6560 C   0  0  0  0  0  0  0  0  0  0  0  0
   -2.8630   10.1650   -6.0190 C   0  0  0  0  0  0  0  0  0  0  0  0
    1.4790    9.2340   -9.4790 F   0  0  0  0  0  0  0  0  0  0  0  0
   -0.2990   10.4030   -9.8760 F   0  0  0  0  0  0  0  0  0  0  0  0
    1.6380   11.3310   -9.9480 F   0  0  0  0  0  0  0  0  0  0  0  0
   -4.3430   15.3070   -2.5630 C   0  0  0  0  0  0  0  0  0  0  0  0
   -2.5730   14.8010   -1.0090 C   0  0  0  0  0  0  0  0  0  0  0  0
   -2.6270    9.3570   -7.1890 C   0  0  0  0  0  0  0  0  0  0  0  0
   -5.1200   15.7610   -1.5030 C   0  0  0  0  0  0  0  0  0  0  0  0
   -3.3460   15.2540    0.0460 C   0  0  0  0  0  0  0  0  0  0  0  0
   -4.6190   15.7320   -0.2050 C   0  0  0  0  0  0  0  0  0  0  0  0
  1  2  1  0
  2  3  1  0
  1  4  1  0
  1  5  1  6
  2  6  2  0
  4  7  1  0
  4  8  2  0
  5  9  1  0
  5 10  1  0
  6 11  1  0
  8 11  1  0
  7 12  1  0
  8 13  1  0
 12 13  2  0
  9 14  1  0
 10 15  1  0
 14 15  1  0
 10 16  1  6
 11 17  2  0
 14 18  1  6
 13 19  1  0
 15 20  1  6
 16 21  2  0
 18 22  1  0
 18 23  1  0
 18 24  1  0
 19 25  2  0
 19 26  1  0
 20 27  2  0
 21 27  1  0
 25 28  1  0
 26 29  2  0
 28 30  2  0
 29 30  1  0
M  END
