mac-x0347-mac-x0123
     RDKit          3D

 22 25  0  0  0  0  0  0  0  0999 V2000
    1.4570   14.6410   -3.6020 O   0  0  0  0  0  0  0  0  0  0  0  0
    0.6960   14.2590   -2.5640 C   0  0  0  0  0  0  0  0  0  0  0  0
    1.1760   13.6430   -1.6360 O   0  0  0  0  0  0  0  0  0  0  0  0
   -0.7200   14.6510   -2.6950 C   0  0  0  0  0  0  0  0  0  0  0  0
   -1.6230   14.5640   -1.6330 C   0  0  0  0  0  0  0  0  0  0  0  0
   -1.1830   15.1190   -3.9160 C   0  0  0  0  0  0  0  0  0  0  0  0
   -2.9600   14.9370   -1.8060 C   0  0  0  0  0  0  0  0  0  0  0  0
   -2.4660   15.4950   -4.1340 N   0  0  0  0  0  0  0  0  0  0  0  0
   -3.3110   15.3920   -3.0790 C   0  0  0  0  0  0  0  0  0  0  0  0
   -4.0180   14.8430   -0.7200 C   0  0  1  0  0  0  0  0  0  0  0  0
   -3.9140   15.6640    0.5440 C   0  0  0  0  0  0  0  0  0  0  0  0
   -5.4790   14.6570   -1.1480 C   0  0  2  0  0  0  0  0  0  0  0  0
   -3.8840   13.4330   -0.4620 N   0  0  0  0  0  0  0  0  0  0  0  0
   -4.5140   15.4490    1.7030 C   0  0  0  0  0  0  0  0  0  0  0  0
   -6.6590   14.2370   -0.2260 C   0  0  1  0  0  0  0  0  0  0  0  0
   -5.2440   13.8200   -2.3300 N   0  0  0  0  0  0  0  0  0  0  0  0
   -4.1890   12.9450   -1.8060 C   0  0  0  0  0  0  0  0  0  0  0  0
   -5.4440   14.3580    2.1360 C   0  0  0  0  0  0  0  0  0  0  0  0
   -6.4710   13.7370    1.2320 C   0  0  1  0  0  0  0  0  0  0  0  0
   -7.8440   15.1240   -0.0750 C   0  0  0  0  0  0  0  0  0  0  0  0
   -8.5210   14.8510    1.0440 C   0  0  0  0  0  0  0  0  0  0  0  0
   -7.8900   13.7410    1.8210 C   0  0  0  0  0  0  0  0  0  0  0  0
  1  2  1  0
  2  3  2  0
  2  4  1  0
  4  5  2  0
  4  6  1  0
  5  7  1  0
  6  8  2  0
  7  9  2  0
  8  9  1  0
 10  7  1  6
 10 11  1  0
 10 12  1  0
 10 13  1  0
 11 14  2  0
 12 15  1  0
 12 16  1  6
 13 17  1  0
 16 17  1  0
 14 18  1  0
 15 19  1  0
 19 18  1  1
 15 20  1  1
 20 21  2  0
 19 22  1  0
 21 22  1  0
M  END
