mac-x0212-diamond-x0855_0_A
     RDKit          3D

 25 26  0  0  0  0  0  0  0  0999 V2000
   -6.6320   12.6750    1.3830 C   0  0  0  0  0  0  0  0  0  0  0  0
   -7.0440   14.3810    1.0730 S   0  0  0  0  0  0  0  0  0  0  0  0
   -7.9600   14.8520    2.0880 O   0  0  0  0  0  0  0  0  0  0  0  0
   -7.3580   14.5220   -0.3340 O   0  0  0  0  0  0  0  0  0  0  0  0
   -5.5250   15.0770    1.2810 N   0  0  0  0  0  0  0  0  0  0  0  0
   -4.5960   15.0280    0.1970 C   0  0  0  0  0  0  0  0  0  0  0  0
   -3.3440   14.5210    0.5040 C   0  0  0  0  0  0  0  0  0  0  0  0
   -4.8890   15.4500   -1.1130 C   0  0  0  0  0  0  0  0  0  0  0  0
   -2.3770   14.4290   -0.4820 C   0  0  0  0  0  0  0  0  0  0  0  0
   -3.9070   15.3550   -2.1150 C   0  0  0  0  0  0  0  0  0  0  0  0
   -2.6500   14.8430   -1.7870 C   0  0  0  0  0  0  0  0  0  0  0  0
   -1.5380   14.7020   -2.7210 C   0  0  0  0  0  0  0  0  0  0  0  0
   -0.3040   14.5980   -2.3990 N   0  0  0  0  0  0  0  0  0  0  0  0
   -1.9190   14.6980   -4.0140 O   0  0  0  0  0  0  0  0  0  0  0  0
    0.8280   14.4560   -3.2900 C   0  0  0  0  0  0  0  0  0  0  0  0
    1.5850   13.2690   -3.0400 O   0  0  0  0  0  0  0  0  0  0  0  0
    1.0010   12.1630   -3.5250 C   0  0  0  0  0  0  0  0  0  0  0  0
    0.7360   11.1450   -2.8880 O   0  0  0  0  0  0  0  0  0  0  0  0
    0.6920   12.3460   -4.9790 C   0  0  0  0  0  0  0  0  0  0  0  0
   -0.4140   11.5150   -5.3620 N   0  0  0  0  0  0  0  0  0  0  0  0
   -0.3910   10.5230   -6.2900 C   0  0  0  0  0  0  0  0  0  0  0  0
   -1.6190   11.6850   -4.7750 N   0  0  0  0  0  0  0  0  0  0  0  0
   -1.6540   10.0190   -6.2980 C   0  0  0  0  0  0  0  0  0  0  0  0
   -2.3810   10.7550   -5.3590 C   0  0  0  0  0  0  0  0  0  0  0  0
   -2.3150    8.6230   -7.3380 Br  0  0  0  0  0  0  0  0  0  0  0  0
  1  2  1  0
  2  3  2  0
  2  4  2  0
  2  5  1  0
  5  6  1  0
  6  7  2  0
  6  8  1  0
  7  9  1  0
  8 10  2  0
  9 11  2  0
 10 11  1  0
 11 12  1  0
 12 13  2  3
 12 14  1  0
 13 15  1  0
 15 16  1  0
 16 17  1  0
 17 18  2  0
 17 19  1  0
 19 20  1  0
 20 21  1  0
 20 22  1  0
 21 23  2  0
 22 24  2  0
 23 24  1  0
 23 25  1  0
M  END
