mac-x0402-mac-x0546
     RDKit          3D

 28 31  0  0  0  0  0  0  0  0999 V2000
   -1.4050   14.4540   -2.6790 Cl  0  0  0  0  0  0  0  0  0  0  0  0
   -2.8770   14.4730   -1.8180 C   0  0  0  0  0  0  0  0  0  0  0  0
   -4.0830   14.1340   -2.4190 C   0  0  0  0  0  0  0  0  0  0  0  0
   -2.7950   14.8400   -0.4860 C   0  0  0  0  0  0  0  0  0  0  0  0
   -4.1700   13.7210   -3.8680 C   0  0  0  0  0  0  0  0  0  0  0  0
   -3.9620   14.8570    0.2570 C   0  0  0  0  0  0  0  0  0  0  0  0
   -5.2580   14.1750   -1.6450 C   0  0  0  0  0  0  0  0  0  0  0  0
   -4.7290   14.9160   -4.5630 C   0  0  0  0  0  0  0  0  0  0  0  0
   -5.1990   14.5330   -0.2870 C   0  0  0  0  0  0  0  0  0  0  0  0
   -4.1610   15.2430    1.9000 S   0  0  0  0  0  0  0  0  0  0  0  0
   -3.8210   15.5810   -5.5420 N   0  0  0  0  0  0  0  0  0  0  0  0
   -5.8420   14.9270    1.7680 C   0  0  0  0  0  0  0  0  0  0  0  0
   -6.2650   14.5860    0.5840 N   0  0  0  0  0  0  0  0  0  0  0  0
   -6.6550   15.0240    2.8300 N   0  0  0  0  0  0  0  0  0  0  0  0
   -4.1150   14.9540   -6.8170 C   0  0  0  0  0  0  0  0  0  0  0  0
   -2.4990   15.8430   -5.1630 C   0  0  0  0  0  0  0  0  0  0  0  0
   -1.7860   14.8030   -4.7710 C   0  0  0  0  0  0  0  0  0  0  0  0
   -1.8330   17.1830   -5.1290 C   0  0  0  0  0  0  0  0  0  0  0  0
   -0.4340   14.9350   -4.2530 C   0  0  2  0  0  0  0  0  0  0  0  0
   -0.4960   17.3770   -4.9290 C   0  0  0  0  0  0  0  0  0  0  0  0
    0.2850   16.1440   -4.7480 C   0  0  0  0  0  0  0  0  0  0  0  0
    0.6400   13.9420   -4.4320 C   0  0  0  0  0  0  0  0  0  0  0  0
    0.4920   12.4750   -4.2610 C   0  0  0  0  0  0  0  0  0  0  0  0
    1.5430   15.9520   -4.9280 N   0  0  0  0  0  0  0  0  0  0  0  0
    1.7320   14.5960   -4.7320 C   0  0  0  0  0  0  0  0  0  0  0  0
    0.4610   11.9900   -2.8360 C   0  0  0  0  0  0  0  0  0  0  0  0
    0.9840   12.5880   -1.9090 O   0  0  0  0  0  0  0  0  0  0  0  0
   -0.2000   10.8250   -2.6720 O   0  0  0  0  0  0  0  0  0  0  0  0
  1  2  1  0
  2  3  2  0
  2  4  1  0
  3  5  1  0
  4  6  2  0
  3  7  1  0
  5  8  1  0
  6  9  1  0
  7  9  2  0
  6 10  1  0
  8 11  1  0
 10 12  1  0
  9 13  1  0
 12 13  2  0
 12 14  1  0
 11 15  1  0
 11 16  1  0
 16 17  2  0
 16 18  1  0
 19 17  1  6
 18 20  2  0
 19 21  1  0
 20 21  1  0
 19 22  1  0
 22 23  1  0
 21 24  2  0
 22 25  2  0
 24 25  1  0
 23 26  1  0
 26 27  2  0
 26 28  1  0
M  END
