mac-x0373-mac-x0496
     RDKit          3D

 27 29  0  0  0  0  0  0  0  0999 V2000
    0.3200   13.2920   -0.7400 O   0  0  0  0  0  0  0  0  0  0  0  0
    0.1400   14.2880   -1.6820 C   0  0  0  0  0  0  0  0  0  0  0  0
    1.0850   15.0200   -1.9170 O   0  0  0  0  0  0  0  0  0  0  0  0
   -1.2340   14.3960   -2.3970 C   0  0  1  0  0  0  0  0  0  0  0  0
   -1.5320   13.2160   -3.3450 C   0  0  0  0  0  0  0  0  0  0  0  0
   -2.5390   14.5900   -1.6030 C   0  0  0  0  0  0  0  0  0  0  0  0
   -0.8840   13.0720   -4.5930 C   0  0  0  0  0  0  0  0  0  0  0  0
   -2.4780   12.2410   -2.9780 C   0  0  0  0  0  0  0  0  0  0  0  0
   -3.6880   15.0380   -2.2540 C   0  0  0  0  0  0  0  0  0  0  0  0
   -2.6360   14.3000   -0.2220 C   0  0  0  0  0  0  0  0  0  0  0  0
   -1.1820   11.9860   -5.4300 C   0  0  0  0  0  0  0  0  0  0  0  0
   -2.7710   11.1610   -3.8140 C   0  0  0  0  0  0  0  0  0  0  0  0
   -4.9050   15.1600   -1.5960 C   0  0  0  0  0  0  0  0  0  0  0  0
   -3.8700   14.4220    0.4610 C   0  0  0  0  0  0  0  0  0  0  0  0
   -3.6100   15.3420   -3.5800 O   0  0  0  0  0  0  0  0  0  0  0  0
   -2.1250   11.0320   -5.0390 C   0  0  0  0  0  0  0  0  0  0  0  0
   -5.0240   14.8350   -0.2410 C   0  0  0  0  0  0  0  0  0  0  0  0
   -6.4350   14.9480    0.3010 C   0  0  0  0  0  0  0  0  0  0  0  0
   -6.7990   14.6090    1.6040 N   0  0  0  0  0  0  0  0  0  0  0  0
   -7.2950   15.3170   -0.4900 O   0  0  0  0  0  0  0  0  0  0  0  0
   -8.1770   14.1450    1.8580 C   0  0  0  0  0  0  0  0  0  0  0  0
   -9.0200   15.2170    2.4820 C   0  0  0  0  0  0  0  0  0  0  0  0
  -10.2310   15.5200    1.9110 O   0  0  0  0  0  0  0  0  0  0  0  0
   -8.7650   15.9480    3.5470 N   0  0  0  0  0  0  0  0  0  0  0  0
   -9.8710   16.7440    3.6410 C   0  0  0  0  0  0  0  0  0  0  0  0
  -10.7940   16.5360    2.6950 N   0  0  0  0  0  0  0  0  0  0  0  0
  -10.0240   17.7510    4.7100 C   0  0  0  0  0  0  0  0  0  0  0  0
  1  2  1  0
  2  3  2  0
  4  2  1  1
  4  5  1  0
  4  6  1  0
  5  7  2  0
  5  8  1  0
  6  9  2  0
  6 10  1  0
  7 11  1  0
  8 12  2  0
  9 13  1  0
 10 14  2  0
  9 15  1  0
 11 16  2  0
 12 16  1  0
 13 17  2  0
 14 17  1  0
 17 18  1  0
 18 19  1  0
 18 20  2  0
 19 21  1  0
 21 22  1  0
 22 23  1  0
 22 24  2  0
 24 25  1  0
 23 26  1  0
 25 26  2  0
 25 27  1  0
M  END
