mac-x0148-diamond-x0766_0_A
     RDKit          3D

 21 24  0  0  0  0  0  0  0  0999 V2000
    0.5910   12.0630   -2.1830 C   0  0  0  0  0  0  0  0  0  0  0  0
    0.5330   10.7100   -2.0990 O   0  0  0  0  0  0  0  0  0  0  0  0
    1.4390   12.7140   -1.6260 O   0  0  0  0  0  0  0  0  0  0  0  0
   -0.4420   12.6570   -3.0760 C   0  0  2  0  0  0  0  0  0  0  0  0
    0.2090   12.5550   -4.4420 C   0  0  0  0  0  0  0  0  0  0  0  0
   -1.0320   14.0110   -2.7280 N   0  0  0  0  0  0  0  0  0  0  0  0
   -2.1410   14.2670   -3.6760 C   0  0  1  0  0  0  0  0  0  0  0  0
   -0.6550   13.1970   -5.4760 C   0  0  0  0  0  0  0  0  0  0  0  0
   -1.2330   14.3350   -1.3450 C   0  0  0  0  0  0  0  0  0  0  0  0
   -2.3010   15.6470   -4.2860 C   0  0  0  0  0  0  0  0  0  0  0  0
   -2.0580   13.3650   -4.9070 C   0  0  2  0  0  0  0  0  0  0  0  0
   -0.1900   14.2670   -0.4240 N   0  0  0  0  0  0  0  0  0  0  0  0
   -2.4120   14.7310   -0.8020 C   0  0  0  0  0  0  0  0  0  0  0  0
   -2.9920   14.0640   -5.8630 C   0  0  0  0  0  0  0  0  0  0  0  0
   -2.8550   15.4660   -5.6080 O   0  0  0  0  0  0  0  0  0  0  0  0
   -0.3890   14.5040    0.9250 C   0  0  0  0  0  0  0  0  0  0  0  0
   -2.5170   15.0170    0.6600 C   0  0  0  0  0  0  0  0  0  0  0  0
   -3.7470   14.9950   -1.2500 C   0  0  0  0  0  0  0  0  0  0  0  0
   -1.4700   14.8630    1.5060 N   0  0  0  0  0  0  0  0  0  0  0  0
   -3.7040   15.4110    1.0130 N   0  0  0  0  0  0  0  0  0  0  0  0
   -4.4270   15.3870   -0.1630 C   0  0  0  0  0  0  0  0  0  0  0  0
  1  2  1  0
  1  3  2  0
  4  1  1  1
  4  5  1  0
  4  6  1  0
  6  7  1  0
  5  8  1  0
  6  9  1  0
  7 10  1  6
  7 11  1  0
 11  8  1  6
  9 12  1  0
  9 13  2  0
 11 14  1  0
 10 15  1  0
 14 15  1  0
 12 16  1  0
 13 17  1  0
 13 18  1  0
 16 19  2  0
 17 19  1  0
 17 20  2  0
 18 21  2  0
 20 21  1  0
M  END
