mac-x0392-mac-x0282
     RDKit          3D

 14 15  0  0  0  0  0  0  0  0999 V2000
   -0.1700   13.6800    1.6930 N   0  0  0  0  0  0  0  0  0  0  0  0
   -1.5060   14.2400    1.4230 C   0  0  0  0  0  0  0  0  0  0  0  0
   -1.4260   14.9850    0.1720 C   0  0  0  0  0  0  0  0  0  0  0  0
   -0.3510   15.5470   -0.2290 N   0  0  0  0  0  0  0  0  0  0  0  0
   -2.6430   15.0790   -0.6370 C   0  0  0  0  0  0  0  0  0  0  0  0
   -2.4090   14.9390   -2.0980 C   0  0  1  0  0  0  0  0  0  0  0  0
   -3.8420   15.2880   -0.1820 N   0  0  0  0  0  0  0  0  0  0  0  0
   -0.4870   16.1970   -1.4270 C   0  0  0  0  0  0  0  0  0  0  0  0
   -1.8090   13.6470   -2.6100 C   0  0  0  0  0  0  0  0  0  0  0  0
   -3.8470   15.1500   -2.4490 C   0  0  0  0  0  0  0  0  0  0  0  0
   -4.5760   15.3320   -1.3310 C   0  0  0  0  0  0  0  0  0  0  0  0
   -1.4160   15.9730   -2.3410 C   0  0  0  0  0  0  0  0  0  0  0  0
   -2.4090   12.6440   -2.9430 O   0  0  0  0  0  0  0  0  0  0  0  0
   -0.4500   13.6990   -2.7060 O   0  0  0  0  0  0  0  0  0  0  0  0
  1  2  1  0
  2  3  1  0
  3  4  2  0
  3  5  1  0
  5  6  1  0
  5  7  2  0
  4  8  1  0
  6  9  1  1
  6 10  1  0
  7 11  1  0
 10 11  2  0
  6 12  1  0
  8 12  2  0
  9 13  2  0
  9 14  1  0
M  END
