mac-x0385-mac-x0344
     RDKit          3D

 23 24  0  0  0  0  0  0  0  0999 V2000
   -5.2900   15.5660   -0.6390 C   0  0  0  0  0  0  0  0  0  0  0  0
   -3.8720   15.3090   -0.2820 C   0  0  0  0  0  0  0  0  0  0  0  0
   -2.9740   15.0040   -1.2660 C   0  0  0  0  0  0  0  0  0  0  0  0
   -3.3620   15.3560    1.0140 C   0  0  0  0  0  0  0  0  0  0  0  0
   -4.1930   15.6710    2.0880 N   0  0  0  0  0  0  0  0  0  0  0  0
   -2.0690   15.1170    1.2990 N   0  0  0  0  0  0  0  0  0  0  0  0
   -1.6900   14.7680   -1.0320 N   0  0  0  0  0  0  0  0  0  0  0  0
   -1.2890   14.8320    0.2420 C   0  0  0  0  0  0  0  0  0  0  0  0
    0.1440   14.5620    0.4590 C   0  0  0  0  0  0  0  0  0  0  0  0
    0.7960   13.8670   -0.7570 C   0  0  0  0  0  0  0  0  0  0  0  0
    0.2420   14.1810   -2.1440 C   0  0  0  0  0  0  0  0  0  0  0  0
    1.3470   13.9810   -3.0830 N   0  0  0  0  0  0  0  0  0  0  0  0
    1.3800   12.9780   -3.8950 C   0  0  0  0  0  0  0  0  0  0  0  0
    2.4350   12.9530   -4.7030 O   0  0  0  0  0  0  0  0  0  0  0  0
    0.4460   11.7790   -4.1480 C   0  0  0  0  0  0  0  0  0  0  0  0
    0.2260   10.9710   -3.2570 O   0  0  0  0  0  0  0  0  0  0  0  0
   -0.0280   11.7750   -5.4520 N   0  0  0  0  0  0  0  0  0  0  0  0
   -0.7310   10.7460   -6.1080 C   0  0  0  0  0  0  0  0  0  0  0  0
   -0.2530   10.0270   -7.2030 C   0  0  0  0  0  0  0  0  0  0  0  0
   -1.9970   10.4400   -5.6130 C   0  0  0  0  0  0  0  0  0  0  0  0
   -1.0340    9.0200   -7.7840 C   0  0  0  0  0  0  0  0  0  0  0  0
   -2.7800    9.4380   -6.1830 C   0  0  0  0  0  0  0  0  0  0  0  0
   -2.2990    8.7250   -7.2710 C   0  0  0  0  0  0  0  0  0  0  0  0
  1  2  1  0
  2  3  2  0
  2  4  1  0
  4  5  1  0
  4  6  2  0
  3  7  1  0
  6  8  1  0
  7  8  2  0
  8  9  1  0
  9 10  1  0
 10 11  1  0
 11 12  1  0
 12 13  2  3
 13 14  1  0
 13 15  1  0
 15 16  2  0
 15 17  1  0
 17 18  1  0
 18 19  2  0
 18 20  1  0
 19 21  1  0
 20 22  2  0
 21 23  2  0
 22 23  1  0
M  END
