mac-x0131-diamond-x0855_0_A
     RDKit          3D

 27 30  0  0  0  0  0  0  0  0999 V2000
   -4.3190   15.0100   -3.9600 C   0  0  0  0  0  0  0  0  0  0  0  0
   -3.6510   15.0180   -2.6380 C   0  0  0  0  0  0  0  0  0  0  0  0
   -4.1440   15.1630   -1.3580 C   0  0  0  0  0  0  0  0  0  0  0  0
   -2.3280   14.8630   -2.5670 N   0  0  0  0  0  0  0  0  0  0  0  0
   -5.5620   15.3760   -1.0000 C   0  0  0  0  0  0  0  0  0  0  0  0
   -1.5630   14.7250   -3.7790 C   0  0  0  0  0  0  0  0  0  0  0  0
   -3.0280   15.0630   -0.4620 C   0  0  0  0  0  0  0  0  0  0  0  0
   -1.8950   14.8670   -1.2380 C   0  0  0  0  0  0  0  0  0  0  0  0
   -2.8400   15.1230    0.9360 C   0  0  0  0  0  0  0  0  0  0  0  0
   -0.6350   14.7240   -0.7650 N   0  0  0  0  0  0  0  0  0  0  0  0
   -0.6360   13.6590   -3.6310 C   0  0  0  0  0  0  0  0  0  0  0  0
   -3.8780   15.3480    1.8230 N   0  0  0  0  0  0  0  0  0  0  0  0
   -1.6010   14.9700    1.4530 N   0  0  0  0  0  0  0  0  0  0  0  0
   -0.5830   14.7850    0.5880 C   0  0  0  0  0  0  0  0  0  0  0  0
   -0.3940   12.4090   -4.1020 C   0  0  0  0  0  0  0  0  0  0  0  0
    0.2740   14.0170   -2.7370 O   0  0  0  0  0  0  0  0  0  0  0  0
    1.1170   13.0140   -2.6320 C   0  0  0  0  0  0  0  0  0  0  0  0
    0.7510   12.0380   -3.4480 C   0  0  0  0  0  0  0  0  0  0  0  0
   -1.0910   11.6230   -5.0130 N   0  0  0  0  0  0  0  0  0  0  0  0
   -0.6700   11.0010   -6.1570 C   0  0  0  0  0  0  0  0  0  0  0  0
   -2.3980   11.3850   -4.7700 N   0  0  0  0  0  0  0  0  0  0  0  0
    1.4760   10.9550   -3.5250 N   0  0  0  0  0  0  0  0  0  0  0  0
   -1.7600   10.3240   -6.6300 C   0  0  0  0  0  0  0  0  0  0  0  0
   -2.7920   10.6000   -5.7490 C   0  0  0  0  0  0  0  0  0  0  0  0
    2.6440   11.4150   -3.7300 C   0  0  0  0  0  0  0  0  0  0  0  0
   -1.9060    9.2350   -8.1270 Br  0  0  0  0  0  0  0  0  0  0  0  0
    2.9520   12.7170   -3.7810 O   0  0  0  0  0  0  0  0  0  0  0  0
  1  2  1  0
  2  3  2  0
  2  4  1  0
  3  5  1  0
  4  6  1  0
  3  7  1  0
  4  8  1  0
  7  8  2  0
  7  9  1  0
  8 10  1  0
  6 11  1  0
  9 12  1  0
  9 13  2  0
 10 14  2  0
 13 14  1  0
 11 15  2  0
 11 16  1  0
 16 17  1  0
 15 18  1  0
 17 18  2  0
 15 19  1  0
 19 20  1  0
 19 21  1  0
 18 22  1  0
 20 23  2  0
 21 24  2  0
 23 24  1  0
 22 25  2  3
 23 26  1  0
 25 27  1  0
M  END
