mac-x0190-mac-x0116
     RDKit          3D

 22 25  0  0  0  0  0  0  0  0999 V2000
   -9.3600   14.9170    1.5290 O   0  0  0  0  0  0  0  0  0  0  0  0
   -9.0810   14.4520    0.2030 C   0  0  0  0  0  0  0  0  0  0  0  0
   -7.6460   14.7330   -0.0770 C   0  0  0  0  0  0  0  0  0  0  0  0
   -7.1010   14.9340   -1.3340 N   0  0  0  0  0  0  0  0  0  0  0  0
   -6.7230   14.8270    0.8410 N   0  0  0  0  0  0  0  0  0  0  0  0
   -5.7590   15.1640   -1.1470 C   0  0  0  0  0  0  0  0  0  0  0  0
   -5.5500   15.0980    0.1850 C   0  0  0  0  0  0  0  0  0  0  0  0
   -4.7890   15.4190   -2.1200 C   0  0  0  0  0  0  0  0  0  0  0  0
   -4.2080   15.2910    0.8100 C   0  0  1  0  0  0  0  0  0  0  0  0
   -4.2330   14.3440    1.8930 N   0  0  0  0  0  0  0  0  0  0  0  0
   -3.4950   15.4190   -1.7160 C   0  0  0  0  0  0  0  0  0  0  0  0
   -3.0240   15.1310   -0.2710 C   0  0  2  0  0  0  0  0  0  0  0  0
   -5.6660   14.2590    2.1790 C   0  0  0  0  0  0  0  0  0  0  0  0
   -2.4250   13.7110   -0.2870 C   0  0  0  0  0  0  0  0  0  0  0  0
   -1.8320   15.9470    0.1310 N   0  0  0  0  0  0  0  0  0  0  0  0
   -6.2650   12.9090    1.9870 C   0  0  0  0  0  0  0  0  0  0  0  0
   -0.9610   13.9000   -0.3070 N   0  0  0  0  0  0  0  0  0  0  0  0
   -0.8070   15.0200    0.5790 C   0  0  0  0  0  0  0  0  0  0  0  0
   -6.2680   12.3850    0.7200 O   0  0  0  0  0  0  0  0  0  0  0  0
   -6.8610   12.0340    2.8600 C   0  0  0  0  0  0  0  0  0  0  0  0
   -7.2580   10.9210    2.0960 C   0  0  0  0  0  0  0  0  0  0  0  0
   -6.8740   11.1810    0.8010 C   0  0  0  0  0  0  0  0  0  0  0  0
  1  2  1  0
  2  3  1  0
  3  4  1  0
  3  5  2  0
  4  6  1  0
  5  7  1  0
  6  7  2  0
  6  8  1  0
  7  9  1  0
  9 10  1  1
  8 11  2  0
  9 12  1  0
 12 11  1  6
 10 13  1  0
 12 14  1  0
 12 15  1  0
 13 16  1  0
 14 17  1  0
 15 18  1  0
 17 18  1  0
 16 19  1  0
 16 20  2  0
 20 21  1  0
 19 22  1  0
 21 22  2  0
M  END
