mac-x0387-mac-x0131
     RDKit          3D

 19 21  0  0  0  0  0  0  0  0999 V2000
   -3.8190   15.2380    1.7390 N   0  0  0  0  0  0  0  0  0  0  0  0
   -2.6360   14.9760    1.0530 C   0  0  0  0  0  0  0  0  0  0  0  0
   -1.5800   14.8160    1.8640 N   0  0  0  0  0  0  0  0  0  0  0  0
   -2.5750   14.8950   -0.3730 C   0  0  0  0  0  0  0  0  0  0  0  0
   -1.2670   14.6590   -0.9030 C   0  0  0  0  0  0  0  0  0  0  0  0
   -0.3850   14.5910    1.3240 C   0  0  0  0  0  0  0  0  0  0  0  0
   -3.6730   15.0230   -1.3280 C   0  0  0  0  0  0  0  0  0  0  0  0
   -5.1050   15.2750   -0.9020 C   0  0  0  0  0  0  0  0  0  0  0  0
   -0.1770   14.5120   -0.0260 C   0  0  0  0  0  0  0  0  0  0  0  0
   -1.0930   14.5750   -2.3030 C   0  0  0  0  0  0  0  0  0  0  0  0
   -3.4230   14.9030   -2.7100 C   0  0  0  0  0  0  0  0  0  0  0  0
   -4.4430   14.9740   -3.7910 C   0  0  0  0  0  0  0  0  0  0  0  0
    0.1780   14.3360   -3.0380 C   0  0  0  0  0  0  0  0  0  0  0  0
   -2.1580   14.6930   -3.1600 C   0  0  0  0  0  0  0  0  0  0  0  0
    0.0260   12.9740   -3.5570 C   0  0  0  0  0  0  0  0  0  0  0  0
    0.6520   11.7980   -3.2880 C   0  0  0  0  0  0  0  0  0  0  0  0
   -0.9460   12.7850   -4.4980 O   0  0  0  0  0  0  0  0  0  0  0  0
   -0.9260   11.4720   -4.8220 C   0  0  0  0  0  0  0  0  0  0  0  0
    0.0340   10.8270   -4.1000 C   0  0  0  0  0  0  0  0  0  0  0  0
  1  2  1  0
  2  3  2  0
  2  4  1  0
  4  5  2  0
  3  6  1  0
  4  7  1  0
  7  8  1  0
  5  9  1  0
  6  9  2  0
  5 10  1  0
  7 11  2  0
 11 12  1  0
 10 13  1  0
 10 14  2  0
 11 14  1  0
 13 15  1  0
 15 16  2  0
 15 17  1  0
 17 18  1  0
 16 19  1  0
 18 19  2  0
M  END
