mac-x0396-mac-x0373
     RDKit          3D

 25 27  0  0  0  0  0  0  0  0999 V2000
   -2.8080   14.3780    2.2640 N   0  0  0  0  0  0  0  0  0  0  0  0
   -3.2760   14.5980    1.0580 C   0  0  0  0  0  0  0  0  0  0  0  0
   -2.3620   14.8910    0.2330 N   0  0  0  0  0  0  0  0  0  0  0  0
   -4.7710   14.4920    0.7690 C   0  0  0  0  0  0  0  0  0  0  0  0
   -5.2790   14.1300   -0.4960 C   0  0  0  0  0  0  0  0  0  0  0  0
   -5.7130   14.7550    1.7510 C   0  0  0  0  0  0  0  0  0  0  0  0
   -3.0440   15.0200   -0.8310 C   0  0  0  0  0  0  0  0  0  0  0  0
   -6.6100   14.0340   -0.8000 N   0  0  0  0  0  0  0  0  0  0  0  0
   -7.0780   14.6550    1.4680 C   0  0  0  0  0  0  0  0  0  0  0  0
   -4.2160   15.6990   -0.6260 C   0  0  0  0  0  0  0  0  0  0  0  0
   -2.6490   14.4870   -2.0200 C   0  0  0  0  0  0  0  0  0  0  0  0
   -1.3530   13.7090   -2.2150 C   0  0  2  0  0  0  0  0  0  0  0  0
   -7.4770   14.3000    0.1920 C   0  0  0  0  0  0  0  0  0  0  0  0
   -3.5320   14.6480   -3.0720 C   0  0  0  0  0  0  0  0  0  0  0  0
   -5.0800   15.8450   -1.6460 C   0  0  0  0  0  0  0  0  0  0  0  0
    0.0520   14.2940   -1.9370 C   0  0  0  0  0  0  0  0  0  0  0  0
   -1.5730   12.7590   -3.3720 C   0  0  0  0  0  0  0  0  0  0  0  0
   -4.7320   15.3070   -2.8720 C   0  0  0  0  0  0  0  0  0  0  0  0
    0.8360   13.3850   -1.2590 O   0  0  0  0  0  0  0  0  0  0  0  0
    0.4960   15.3890   -2.2360 O   0  0  0  0  0  0  0  0  0  0  0  0
   -0.8560   12.8120   -4.5780 C   0  0  0  0  0  0  0  0  0  0  0  0
   -2.5570   11.7770   -3.2110 C   0  0  0  0  0  0  0  0  0  0  0  0
   -1.1310   11.8920   -5.5930 C   0  0  0  0  0  0  0  0  0  0  0  0
   -2.8290   10.8650   -4.2180 C   0  0  0  0  0  0  0  0  0  0  0  0
   -2.1180   10.9190   -5.4100 C   0  0  0  0  0  0  0  0  0  0  0  0
  1  2  1  0
  2  3  2  3
  2  4  1  0
  4  5  2  0
  4  6  1  0
  3  7  1  0
  5  8  1  0
  6  9  2  0
  7 10  2  0
  7 11  1  0
 11 12  1  0
  8 13  2  0
  9 13  1  0
 11 14  2  0
 10 15  1  0
 12 16  1  6
 12 17  1  0
 14 18  1  0
 15 18  2  0
 16 19  1  0
 16 20  2  0
 17 21  2  0
 17 22  1  0
 21 23  1  0
 22 24  2  0
 23 25  2  0
 24 25  1  0
M  END
