mac-x0341-diamond-x0962_0_A
     RDKit          3D

 14 15  0  0  0  0  0  0  0  0999 V2000
   -6.5770   14.6930    2.0770 N   0  0  0  0  0  0  0  0  0  0  0  0
   -5.9150   14.7380    0.8850 C   0  0  0  0  0  0  0  0  0  0  0  0
   -4.5280   14.4630    0.9010 N   0  0  0  0  0  0  0  0  0  0  0  0
   -6.5450   15.0060   -0.2040 N   0  0  0  0  0  0  0  0  0  0  0  0
   -4.2480   13.3630    0.2180 C   0  0  0  0  0  0  0  0  0  0  0  0
   -5.8080   15.0400   -1.3580 C   0  0  0  0  0  0  0  0  0  0  0  0
   -3.7300   15.0300   -0.0650 C   0  0  0  0  0  0  0  0  0  0  0  0
   -6.3140   14.8740   -2.4610 O   0  0  0  0  0  0  0  0  0  0  0  0
   -3.8940   12.5770   -0.5570 N   0  0  0  0  0  0  0  0  0  0  0  0
   -4.3480   15.2970   -1.2630 C   0  0  0  0  0  0  0  0  0  0  0  0
   -2.3690   15.2580    0.1300 C   0  0  0  0  0  0  0  0  0  0  0  0
   -1.6140   15.7460   -0.9240 C   0  0  0  0  0  0  0  0  0  0  0  0
   -3.5920   15.7760   -2.3210 C   0  0  0  0  0  0  0  0  0  0  0  0
   -2.2260   15.9950   -2.1520 C   0  0  0  0  0  0  0  0  0  0  0  0
  1  2  1  0
  2  3  1  0
  2  4  2  0
  3  5  1  0
  4  6  1  0
  3  7  1  0
  6  8  2  0
  5  9  3  0
  6 10  1  0
  7 10  2  0
  7 11  1  0
 11 12  2  0
 10 13  1  0
 12 14  1  0
 13 14  2  0
M  END
