mac-x0358-mac-x0453
     RDKit          3D

 20 21  0  0  0  0  0  0  0  0999 V2000
    1.6410   12.9060   -2.1260 O   0  0  0  0  0  0  0  0  0  0  0  0
    1.0170   12.2490   -3.1180 C   0  0  0  0  0  0  0  0  0  0  0  0
    0.5770   11.1270   -2.9130 O   0  0  0  0  0  0  0  0  0  0  0  0
    0.9100   13.0080   -4.4170 C   0  0  0  0  0  0  0  0  0  0  0  0
   -0.5260   13.2770   -4.7530 C   0  0  0  0  0  0  0  0  0  0  0  0
   -1.2160   12.5030   -5.6860 C   0  0  0  0  0  0  0  0  0  0  0  0
   -1.2100   14.3060   -4.1130 C   0  0  0  0  0  0  0  0  0  0  0  0
   -0.5470   11.4880   -6.2890 O   0  0  0  0  0  0  0  0  0  0  0  0
   -2.5480   12.7450   -5.9960 C   0  0  0  0  0  0  0  0  0  0  0  0
   -2.5540   14.5390   -4.4000 C   0  0  0  0  0  0  0  0  0  0  0  0
   -3.3100   15.5950   -3.6720 C   0  0  0  0  0  0  0  0  0  0  0  0
   -3.2190   13.7660   -5.3500 C   0  0  0  0  0  0  0  0  0  0  0  0
   -3.4470   15.2730   -2.2010 C   0  0  0  0  0  0  0  0  0  0  0  0
   -2.3910   14.9040   -1.3990 N   0  0  0  0  0  0  0  0  0  0  0  0
   -4.5560   15.2950   -1.4800 N   0  0  0  0  0  0  0  0  0  0  0  0
   -4.1950   14.9360   -0.1990 C   0  0  0  0  0  0  0  0  0  0  0  0
   -2.8530   14.6910   -0.1320 C   0  0  0  0  0  0  0  0  0  0  0  0
   -5.2100   14.8650    0.8830 C   0  0  0  0  0  0  0  0  0  0  0  0
   -5.6850   13.4500    1.2190 C   0  0  0  0  0  0  0  0  0  0  0  0
   -6.8390   13.4910    2.1250 N   0  0  0  0  0  0  0  0  0  0  0  0
  1  2  1  0
  2  3  2  0
  2  4  1  0
  4  5  1  0
  5  6  2  0
  5  7  1  0
  6  8  1  0
  6  9  1  0
  7 10  2  0
 10 11  1  0
  9 12  2  0
 10 12  1  0
 11 13  1  0
 13 14  1  0
 13 15  2  0
 15 16  1  0
 14 17  1  0
 16 17  2  0
 16 18  1  0
 18 19  1  0
 19 20  1  0
M  END
