mac-x0453-mac-x0302
     RDKit          3D

 15 15  0  0  0  0  0  0  0  0999 V2000
   -7.1290   14.2670    2.6220 N   0  0  0  0  0  0  0  0  0  0  0  0
   -6.3850   13.7670    1.4790 C   0  0  0  0  0  0  0  0  0  0  0  0
   -5.1010   14.5580    1.2430 C   0  0  0  0  0  0  0  0  0  0  0  0
   -4.3940   14.0050   -0.0010 C   0  0  2  0  0  0  0  0  0  0  0  0
   -2.9190   14.4110   -0.1280 C   0  0  0  0  0  0  0  0  0  0  0  0
   -4.9800   14.4670   -1.2930 N   0  0  0  0  0  0  0  0  0  0  0  0
   -6.1460   15.3060   -1.0100 O   0  0  0  0  0  0  0  0  0  0  0  0
   -2.7350   14.3730   -1.5790 N   0  0  0  0  0  0  0  0  0  0  0  0
   -3.8990   15.1690   -1.9810 C   0  0  1  0  0  0  0  0  0  0  0  0
   -1.4440   14.9530   -1.9270 N   0  0  0  0  0  0  0  0  0  0  0  0
   -4.1030   15.1540   -3.3800 O   0  0  0  0  0  0  0  0  0  0  0  0
   -0.8770   14.3470   -3.1420 C   0  0  0  0  0  0  0  0  0  0  0  0
    0.5650   13.9810   -2.8810 C   0  0  0  0  0  0  0  0  0  0  0  0
    1.4290   14.2850   -3.8700 O   0  0  0  0  0  0  0  0  0  0  0  0
    0.9840   13.4520   -1.8670 O   0  0  0  0  0  0  0  0  0  0  0  0
  1  2  1  0
  2  3  1  0
  4  3  1  1
  4  5  1  0
  4  6  1  0
  6  7  1  0
  5  8  1  0
  6  9  1  0
  8  9  1  0
  8 10  1  0
  9 11  1  6
 10 12  1  0
 12 13  1  0
 13 14  1  0
 13 15  2  0
M  END
