mac-x0206-diamond-x0685_1_A
     RDKit          3D

 26 27  0  0  0  0  0  0  0  0999 V2000
   -3.1560   15.1570   -0.6420 N   0  0  0  0  0  0  0  0  0  0  0  0
   -4.4370   15.0570   -1.0970 C   0  0  0  0  0  0  0  0  0  0  0  0
   -4.6560   15.0720   -2.3770 N   0  0  0  0  0  0  0  0  0  0  0  0
   -5.5320   14.9270   -0.1140 C   0  0  0  0  0  0  0  0  0  0  0  0
   -3.6070   15.1920   -3.3900 C   0  0  0  0  0  0  0  0  0  0  0  0
   -6.8390   14.7420   -0.5610 C   0  0  0  0  0  0  0  0  0  0  0  0
   -5.2510   14.9910    1.2560 C   0  0  0  0  0  0  0  0  0  0  0  0
   -7.0960   14.6840   -1.8990 O   0  0  0  0  0  0  0  0  0  0  0  0
   -2.6500   14.0150   -3.2120 C   0  0  0  0  0  0  0  0  0  0  0  0
   -7.8860   14.6140    0.3550 C   0  0  0  0  0  0  0  0  0  0  0  0
   -6.3070   14.8660    2.1670 C   0  0  0  0  0  0  0  0  0  0  0  0
   -2.5690   13.0990   -4.4440 C   0  0  0  0  0  0  0  0  0  0  0  0
   -7.6140   14.6750    1.7210 C   0  0  0  0  0  0  0  0  0  0  0  0
   -1.5880   11.9140   -4.2680 C   0  0  1  0  0  0  0  0  0  0  0  0
   -1.9810   10.6370   -4.9410 N   0  0  0  0  0  0  0  0  0  0  0  0
   -0.1200   12.3350   -4.2610 C   0  0  0  0  0  0  0  0  0  0  0  0
    0.7050   11.9390   -2.7130 S   0  0  0  0  0  0  0  0  0  0  0  0
   -1.6920   10.2480   -6.3380 C   0  0  0  0  0  0  0  0  0  0  0  0
    2.2490   12.3030   -2.9110 O   0  0  0  0  0  0  0  0  0  0  0  0
    0.4920   10.3600   -2.5110 O   0  0  0  0  0  0  0  0  0  0  0  0
    0.0890   12.7220   -1.4540 O   0  0  0  0  0  0  0  0  0  0  0  0
   -0.3470    9.5270   -6.4000 C   0  0  0  0  0  0  0  0  0  0  0  0
   -1.6950   11.3910   -7.3630 C   0  0  0  0  0  0  0  0  0  0  0  0
   -0.1560    8.7710   -7.7060 C   0  0  0  0  0  0  0  0  0  0  0  0
   -1.1060   10.9470   -8.7010 C   0  0  0  0  0  0  0  0  0  0  0  0
   -0.9900    9.4140   -8.8180 C   0  0  0  0  0  0  0  0  0  0  0  0
  1  2  1  0
  2  3  2  3
  2  4  1  0
  3  5  1  0
  4  6  2  0
  4  7  1  0
  6  8  1  0
  5  9  1  0
  6 10  1  0
  7 11  2  0
  9 12  1  0
 10 13  2  0
 11 13  1  0
 14 12  1  6
 14 15  1  0
 14 16  1  0
 16 17  1  0
 15 18  1  0
 17 19  1  0
 17 20  1  0
 17 21  1  0
 18 22  1  0
 18 23  1  0
 22 24  1  0
 23 25  1  0
 24 26  1  0
 25 26  1  0
M  END
