mac-x0354-mac-x0510
     RDKit          3D

 28 31  0  0  0  0  0  0  0  0999 V2000
    0.6750   11.0180   -8.3260 C   0  0  0  0  0  0  0  0  0  0  0  0
    0.9370   11.5040   -6.9870 N   0  0  0  0  0  0  0  0  0  0  0  0
    1.9200   12.3860   -6.7660 N   0  0  0  0  0  0  0  0  0  0  0  0
    0.2730   11.1580   -5.8540 C   0  0  0  0  0  0  0  0  0  0  0  0
    1.8900   12.6180   -5.4780 C   0  0  0  0  0  0  0  0  0  0  0  0
    0.8840   11.8830   -4.8310 C   0  0  0  0  0  0  0  0  0  0  0  0
   -0.8180   10.2020   -5.9030 C   0  0  0  0  0  0  0  0  0  0  0  0
    0.6420   11.9530   -3.4230 C   0  0  0  0  0  0  0  0  0  0  0  0
   -0.6160    8.9450   -6.4830 C   0  0  0  0  0  0  0  0  0  0  0  0
   -2.0660   10.5260   -5.3780 C   0  0  0  0  0  0  0  0  0  0  0  0
    0.9030   13.0880   -2.8990 N   0  0  0  0  0  0  0  0  0  0  0  0
    0.1630   10.8500   -2.7840 O   0  0  0  0  0  0  0  0  0  0  0  0
   -1.6540    8.0210   -6.5360 C   0  0  0  0  0  0  0  0  0  0  0  0
   -3.1080    9.6000   -5.4320 C   0  0  0  0  0  0  0  0  0  0  0  0
    0.7020   13.4260   -1.5040 C   0  0  0  0  0  0  0  0  0  0  0  0
   -2.9000    8.3500   -6.0110 C   0  0  0  0  0  0  0  0  0  0  0  0
   -0.1160   14.7070   -1.4100 C   0  0  0  0  0  0  0  0  0  0  0  0
   -1.0280   14.7240   -0.3000 N   0  0  0  0  0  0  0  0  0  0  0  0
   -2.3830   14.9040   -0.3100 C   0  0  0  0  0  0  0  0  0  0  0  0
   -0.6480   14.5560    1.0010 C   0  0  0  0  0  0  0  0  0  0  0  0
   -2.7300   14.8270    1.0050 C   0  0  0  0  0  0  0  0  0  0  0  0
   -3.3480   15.1340   -1.3360 C   0  0  0  0  0  0  0  0  0  0  0  0
   -1.6730   14.6110    1.8180 N   0  0  0  0  0  0  0  0  0  0  0  0
   -3.1150   15.2830   -2.5330 O   0  0  0  0  0  0  0  0  0  0  0  0
   -4.0200   14.9590    1.4060 N   0  0  0  0  0  0  0  0  0  0  0  0
   -4.6300   15.1890   -0.8450 N   0  0  0  0  0  0  0  0  0  0  0  0
   -5.0070   15.0250    0.4670 C   0  0  0  0  0  0  0  0  0  0  0  0
   -6.1920   14.9310    0.7690 O   0  0  0  0  0  0  0  0  0  0  0  0
  1  2  1  0
  2  3  1  0
  2  4  1  0
  3  5  2  0
  4  6  2  0
  5  6  1  0
  4  7  1  0
  6  8  1  0
  7  9  2  0
  7 10  1  0
  8 11  2  3
  8 12  1  0
  9 13  1  0
 10 14  2  0
 11 15  1  0
 13 16  2  0
 14 16  1  0
 15 17  1  0
 17 18  1  0
 18 19  1  0
 18 20  1  0
 19 21  2  0
 19 22  1  0
 20 23  2  0
 21 23  1  0
 22 24  2  0
 21 25  1  0
 22 26  1  0
 25 27  1  0
 26 27  1  0
 27 28  2  0
M  END
