mac-x0163-mac-x0178
     RDKit          3D

 24 26  0  0  0  0  0  0  0  0999 V2000
   -4.1690   15.3340   -1.1740 Cl  0  0  0  0  0  0  0  0  0  0  0  0
   -2.7350   14.9300   -0.3010 C   0  0  0  0  0  0  0  0  0  0  0  0
   -2.6940   15.0570    1.0770 C   0  0  0  0  0  0  0  0  0  0  0  0
   -1.5810   14.4660   -0.9250 C   0  0  0  0  0  0  0  0  0  0  0  0
   -3.8110   15.5190    1.8010 N   0  0  0  0  0  0  0  0  0  0  0  0
   -0.4670   14.1600   -0.2260 N   0  0  0  0  0  0  0  0  0  0  0  0
   -1.6000   14.7480    1.7820 N   0  0  0  0  0  0  0  0  0  0  0  0
   -1.5700   14.3150   -2.3420 N   0  0  0  0  0  0  0  0  0  0  0  0
   -0.5380   14.3190    1.1020 C   0  0  0  0  0  0  0  0  0  0  0  0
   -2.2050   13.2020   -3.1390 C   0  0  0  0  0  0  0  0  0  0  0  0
   -1.5390   15.6770   -2.9320 C   0  0  0  0  0  0  0  0  0  0  0  0
   -1.6980   13.1390   -4.6210 C   0  0  0  0  0  0  0  0  0  0  0  0
   -2.1200   11.8200   -2.4130 C   0  0  0  0  0  0  0  0  0  0  0  0
   -3.7560   13.0400   -3.0210 C   0  0  0  0  0  0  0  0  0  0  0  0
   -1.5260   15.4610   -4.4230 C   0  0  1  0  0  0  0  0  0  0  0  0
   -1.5910   17.0510   -5.3670 S   0  0  0  0  0  0  0  0  0  0  0  0
   -0.6310   14.2040   -4.7080 C   0  0  1  0  0  0  0  0  0  0  0  0
   -3.4980   12.1400   -1.7930 C   0  0  0  0  0  0  0  0  0  0  0  0
   -0.0450   17.3910   -5.9170 N   0  0  0  0  0  0  0  0  0  0  0  0
   -2.4160   16.9140   -6.5550 O   0  0  0  0  0  0  0  0  0  0  0  0
   -1.8740   18.1650   -4.4970 O   0  0  0  0  0  0  0  0  0  0  0  0
    0.4410   13.6810   -3.7240 C   0  0  0  0  0  0  0  0  0  0  0  0
    1.1590   14.3110   -2.9580 O   0  0  0  0  0  0  0  0  0  0  0  0
    0.5410   12.3310   -3.7400 O   0  0  0  0  0  0  0  0  0  0  0  0
  1  2  1  0
  2  3  2  0
  2  4  1  0
  3  5  1  0
  4  6  2  0
  3  7  1  0
  4  8  1  0
  6  9  1  0
  7  9  2  0
 10  8  1  0
  8 11  1  0
 10 12  1  0
 10 13  1  0
 10 14  1  0
 11 15  1  0
 15 16  1  6
 12 17  1  0
 15 17  1  0
 13 18  1  0
 14 18  1  0
 16 19  1  0
 16 20  2  0
 16 21  2  0
 17 22  1  1
 22 23  2  0
 22 24  1  0
M  END
