mac-x0379-mac-x0455
     RDKit          3D

 18 19  0  0  0  0  0  0  0  0999 V2000
   -5.6440   15.3760   -0.1060 C   0  0  0  0  0  0  0  0  0  0  0  0
   -4.6040   15.1640   -1.1100 C   0  0  0  0  0  0  0  0  0  0  0  0
   -4.6510   15.2460   -2.4020 N   0  0  0  0  0  0  0  0  0  0  0  0
   -2.9640   14.7230   -0.8550 S   0  0  0  0  0  0  0  0  0  0  0  0
   -3.6110   15.0090   -3.1300 C   0  0  0  0  0  0  0  0  0  0  0  0
   -2.4730   14.6660   -2.4950 C   0  0  0  0  0  0  0  0  0  0  0  0
   -0.8960   14.2340   -3.0670 S   0  0  0  0  0  0  0  0  0  0  0  0
   -0.8150   15.2000   -4.1390 O   0  0  0  0  0  0  0  0  0  0  0  0
    0.3910   14.4660   -2.4540 N   0  0  0  0  0  0  0  0  0  0  0  0
   -1.1300   12.9670   -2.0620 C   0  0  0  0  0  0  0  0  0  0  0  0
   -0.9730   12.9310   -4.3600 C   0  0  0  0  0  0  0  0  0  0  0  0
    1.5530   14.0170   -2.3400 C   0  0  0  0  0  0  0  0  0  0  0  0
   -2.0660   12.1290   -4.3610 C   0  0  0  0  0  0  0  0  0  0  0  0
    0.0540   12.8190   -5.2310 C   0  0  0  0  0  0  0  0  0  0  0  0
    2.4750   14.6410   -1.5320 O   0  0  0  0  0  0  0  0  0  0  0  0
   -2.1670   11.1110   -5.3060 C   0  0  0  0  0  0  0  0  0  0  0  0
   -0.0340   11.8000   -6.1850 C   0  0  0  0  0  0  0  0  0  0  0  0
   -1.1320   10.9660   -6.2090 C   0  0  0  0  0  0  0  0  0  0  0  0
  1  2  1  0
  2  3  2  0
  2  4  1  0
  3  5  1  0
  4  6  1  0
  5  6  2  0
  6  7  1  0
  7  8  2  0
  7  9  1  0
  7 10  1  0
  7 11  1  0
  9 12  2  3
 11 13  2  0
 11 14  1  0
 12 15  1  0
 13 16  1  0
 14 17  2  0
 16 18  2  0
 17 18  1  0
M  END
