mac-x0277-mac-x0338
     RDKit          3D

 23 24  0  0  0  0  0  0  0  0999 V2000
   -1.1870   18.5350   -5.1810 Cl  0  0  0  0  0  0  0  0  0  0  0  0
   -0.5360   16.9580   -4.9550 C   0  0  0  0  0  0  0  0  0  0  0  0
   -1.3250   15.8350   -5.1530 C   0  0  0  0  0  0  0  0  0  0  0  0
    0.7980   16.8440   -4.5710 C   0  0  0  0  0  0  0  0  0  0  0  0
   -2.7790   15.9860   -5.5650 C   0  0  0  0  0  0  0  0  0  0  0  0
   -0.7350   14.5620   -4.9620 C   0  0  0  0  0  0  0  0  0  0  0  0
    1.3700   15.5870   -4.3810 C   0  0  0  0  0  0  0  0  0  0  0  0
   -3.6900   14.8510   -5.1310 C   0  0  0  0  0  0  0  0  0  0  0  0
    0.6120   14.4290   -4.5760 C   0  0  0  0  0  0  0  0  0  0  0  0
    1.2320   13.0630   -4.3720 C   0  0  0  0  0  0  0  0  0  0  0  0
   -3.1570   14.1400   -3.9030 C   0  0  0  0  0  0  0  0  0  0  0  0
    0.9100   12.4390   -3.0320 C   0  0  0  0  0  0  0  0  0  0  0  0
   -3.8000   14.4510   -2.5890 C   0  0  0  0  0  0  0  0  0  0  0  0
    0.2160   11.2880   -3.1650 O   0  0  0  0  0  0  0  0  0  0  0  0
    1.1970   12.8460   -1.9210 O   0  0  0  0  0  0  0  0  0  0  0  0
   -2.9740   14.4690   -1.4770 C   0  0  0  0  0  0  0  0  0  0  0  0
   -5.1330   14.6840   -2.5000 N   0  0  0  0  0  0  0  0  0  0  0  0
   -3.4200   14.6920   -0.2340 N   0  0  0  0  0  0  0  0  0  0  0  0
   -5.5880   14.9080   -1.2410 C   0  0  0  0  0  0  0  0  0  0  0  0
   -4.7460   14.8970   -0.1390 C   0  0  0  0  0  0  0  0  0  0  0  0
   -5.2670   15.0970    1.2250 C   0  0  0  0  0  0  0  0  0  0  0  0
   -4.3710   15.3820    2.2080 N   0  0  0  0  0  0  0  0  0  0  0  0
   -6.4540   14.9790    1.4990 O   0  0  0  0  0  0  0  0  0  0  0  0
  1  2  1  0
  2  3  2  0
  2  4  1  0
  3  5  1  0
  3  6  1  0
  4  7  2  0
  5  8  1  0
  6  9  2  0
  7  9  1  0
  9 10  1  0
  8 11  1  0
 10 12  1  0
 11 13  1  0
 12 14  1  0
 12 15  2  0
 13 16  2  0
 13 17  1  0
 16 18  1  0
 17 19  2  0
 18 20  2  0
 19 20  1  0
 20 21  1  0
 21 22  1  0
 21 23  2  0
M  END
