mac-x0212-mac-x0163
     RDKit          3D

 30 33  0  0  0  0  0  0  0  0999 V2000
   -4.7290   12.9890    1.5120 C   0  0  0  0  0  0  0  0  0  0  0  0
   -5.4120   14.6070    1.2220 S   0  0  0  0  0  0  0  0  0  0  0  0
   -5.5180   15.3070    2.4770 O   0  0  0  0  0  0  0  0  0  0  0  0
   -6.6130   14.4190    0.4220 O   0  0  0  0  0  0  0  0  0  0  0  0
   -4.2060   15.3340    0.2640 N   0  0  0  0  0  0  0  0  0  0  0  0
   -4.2040   14.8360   -1.0470 C   0  0  0  0  0  0  0  0  0  0  0  0
   -2.7590   15.1320    0.4370 C   0  0  0  0  0  0  0  0  0  0  0  0
   -3.2440   13.8220   -1.1650 C   0  0  0  0  0  0  0  0  0  0  0  0
   -4.9740   15.2230   -2.1400 C   0  0  0  0  0  0  0  0  0  0  0  0
   -2.0750   15.3420   -0.7760 C   0  0  0  0  0  0  0  0  0  0  0  0
   -2.1270   14.7670    1.5910 N   0  0  0  0  0  0  0  0  0  0  0  0
   -2.9320   15.8070   -2.1770 Cl  0  0  0  0  0  0  0  0  0  0  0  0
   -3.0140   13.2020   -2.3680 C   0  0  0  0  0  0  0  0  0  0  0  0
   -4.7410   14.5880   -3.3750 C   0  0  0  0  0  0  0  0  0  0  0  0
   -0.7130   15.1550   -0.8150 C   0  0  0  0  0  0  0  0  0  0  0  0
   -0.7930   14.6160    1.4300 C   0  0  0  0  0  0  0  0  0  0  0  0
   -3.7470   13.5840   -3.4800 C   0  0  0  0  0  0  0  0  0  0  0  0
   -0.0730   14.7900    0.3070 N   0  0  0  0  0  0  0  0  0  0  0  0
    0.0810   15.3170   -2.0060 N   0  0  0  0  0  0  0  0  0  0  0  0
   -3.4780   12.9390   -4.7790 C   0  0  0  0  0  0  0  0  0  0  0  0
   -0.2970   15.6860   -3.3970 C   0  0  0  0  0  0  0  0  0  0  0  0
    1.3040   14.4890   -1.8990 C   0  0  0  0  0  0  0  0  0  0  0  0
   -2.8510   11.9040   -4.9230 O   0  0  0  0  0  0  0  0  0  0  0  0
   -3.9690   13.6170   -5.8300 O   0  0  0  0  0  0  0  0  0  0  0  0
   -0.1420   14.4710   -4.3440 C   0  0  0  0  0  0  0  0  0  0  0  0
   -1.7130   16.3350   -3.5740 C   0  0  0  0  0  0  0  0  0  0  0  0
    0.2640   17.0590   -3.9220 C   0  0  0  0  0  0  0  0  0  0  0  0
    2.0930   14.4790   -3.2200 C   0  0  0  0  0  0  0  0  0  0  0  0
    1.2720   13.8930   -4.3550 C   0  0  0  0  0  0  0  0  0  0  0  0
   -1.1100   17.3730   -4.5360 C   0  0  0  0  0  0  0  0  0  0  0  0
  1  2  1  0
  2  3  2  0
  2  4  2  0
  2  5  1  0
  5  6  1  0
  5  7  1  0
  6  8  2  0
  6  9  1  0
  7 10  2  0
  7 11  1  0
 10 12  1  0
  8 13  1  0
  9 14  2  0
 10 15  1  0
 11 16  2  0
 13 17  2  0
 14 17  1  0
 15 18  2  0
 16 18  1  0
 15 19  1  0
 17 20  1  0
 21 19  1  0
 19 22  1  0
 20 23  2  0
 20 24  1  0
 21 25  1  0
 21 26  1  0
 21 27  1  0
 22 28  1  0
 25 29  1  0
 28 29  1  0
 26 30  1  0
 27 30  1  0
M  END
