mac-x0510-mac-x0404
     RDKit          3D

 27 30  0  0  0  0  0  0  0  0999 V2000
   -6.1420   14.9450    1.3130 O   0  0  0  0  0  0  0  0  0  0  0  0
   -5.0370   14.9330    0.7830 C   0  0  0  0  0  0  0  0  0  0  0  0
   -4.9450   14.8210   -0.5760 N   0  0  0  0  0  0  0  0  0  0  0  0
   -3.8840   15.0160    1.4920 N   0  0  0  0  0  0  0  0  0  0  0  0
   -2.6970   14.9030    0.8370 C   0  0  0  0  0  0  0  0  0  0  0  0
   -3.8530   15.0550   -1.3640 C   0  0  0  0  0  0  0  0  0  0  0  0
   -4.1160   15.3300   -2.6310 N   0  0  0  0  0  0  0  0  0  0  0  0
   -2.6390   14.9230   -0.5560 C   0  0  0  0  0  0  0  0  0  0  0  0
   -1.4910   14.7620    1.4400 N   0  0  0  0  0  0  0  0  0  0  0  0
   -3.4980   15.6570   -3.9420 C   0  0  0  0  0  0  0  0  0  0  0  0
   -1.2960   14.7950   -0.8030 N   0  0  0  0  0  0  0  0  0  0  0  0
   -0.6500   14.7060    0.4240 C   0  0  0  0  0  0  0  0  0  0  0  0
   -2.1470   15.2430   -4.2670 C   0  0  0  0  0  0  0  0  0  0  0  0
   -1.2000   16.1780   -4.7390 C   0  0  0  0  0  0  0  0  0  0  0  0
   -1.8500   13.9130   -4.0790 C   0  0  0  0  0  0  0  0  0  0  0  0
    0.0890   15.7140   -4.9740 C   0  0  0  0  0  0  0  0  0  0  0  0
   -0.5880   13.4610   -4.3240 C   0  0  0  0  0  0  0  0  0  0  0  0
   -1.4720   17.5510   -4.9800 C   0  0  0  0  0  0  0  0  0  0  0  0
    0.3850   14.3490   -4.7540 C   0  0  0  0  0  0  0  0  0  0  0  0
   -0.4980   18.4340   -5.4300 C   0  0  0  0  0  0  0  0  0  0  0  0
    1.0480   16.6240   -5.4200 C   0  0  0  0  0  0  0  0  0  0  0  0
    1.6580   13.9550   -4.9760 O   0  0  0  0  0  0  0  0  0  0  0  0
    0.7780   17.9670   -5.6490 C   0  0  0  0  0  0  0  0  0  0  0  0
    2.0410   12.7050   -4.4410 C   0  0  0  0  0  0  0  0  0  0  0  0
    1.2750   12.1640   -3.2210 C   0  0  0  0  0  0  0  0  0  0  0  0
    1.4290   12.9200   -2.1170 O   0  0  0  0  0  0  0  0  0  0  0  0
    0.5830   11.1580   -3.1500 O   0  0  0  0  0  0  0  0  0  0  0  0
  1  2  2  0
  2  3  1  0
  2  4  1  0
  4  5  1  0
  3  6  1  0
  6  7  2  3
  5  8  2  0
  6  8  1  0
  5  9  1  0
  7 10  1  0
  8 11  1  0
  9 12  2  0
 11 12  1  0
 10 13  1  0
 13 14  1  0
 13 15  2  0
 14 16  2  0
 15 17  1  0
 14 18  1  0
 16 19  1  0
 17 19  2  0
 18 20  2  0
 16 21  1  0
 19 22  1  0
 20 23  1  0
 21 23  2  0
 22 24  1  0
 24 25  1  0
 25 26  1  0
 25 27  2  0
M  END
