mac-x0453-mac-x0123
     RDKit          3D

 14 16  0  0  0  0  0  0  0  0999 V2000
   -7.1480   13.9390    4.4910 N   0  0  0  0  0  0  0  0  0  0  0  0
   -6.3310   14.3710    3.3870 C   0  0  0  0  0  0  0  0  0  0  0  0
   -6.9070   13.8600    2.1000 C   0  0  2  0  0  0  0  0  0  0  0  0
   -5.9580   14.2000    1.0410 C   0  0  0  0  0  0  0  0  0  0  0  0
   -8.2140   14.5310    1.6550 C   0  0  0  0  0  0  0  0  0  0  0  0
   -4.6390   14.1820    1.0330 C   0  0  0  0  0  0  0  0  0  0  0  0
   -6.7060   14.6080   -0.1640 C   0  0  0  0  0  0  0  0  0  0  0  0
   -8.1790   14.5850    0.1220 C   0  0  0  0  0  0  0  0  0  0  0  0
   -4.0130   14.5270   -0.1580 C   0  0  0  0  0  0  0  0  0  0  0  0
   -6.1720   14.9410   -1.2960 N   0  0  0  0  0  0  0  0  0  0  0  0
   -2.7140   14.6060   -0.5700 C   0  0  0  0  0  0  0  0  0  0  0  0
   -4.7910   14.8780   -1.2440 N   0  0  0  0  0  0  0  0  0  0  0  0
   -2.6490   14.9890   -1.8790 N   0  0  0  0  0  0  0  0  0  0  0  0
   -3.9050   15.1470   -2.2560 C   0  0  0  0  0  0  0  0  0  0  0  0
  1  2  1  0
  3  2  1  1
  3  4  1  0
  3  5  1  0
  4  6  2  0
  4  7  1  0
  5  8  1  0
  7  8  1  0
  6  9  1  0
  7 10  2  0
  9 11  2  0
  9 12  1  0
 10 12  1  0
 11 13  1  0
 12 14  1  0
 13 14  2  0
M  END
