mac-x0226-diamond-x0950_1_A
     RDKit          3D

 17 18  0  0  0  0  0  0  0  0999 V2000
    0.7440   10.7630   -2.2360 O   0  0  0  0  0  0  0  0  0  0  0  0
    0.3800   11.9070   -2.9970 C   0  0  0  0  0  0  0  0  0  0  0  0
   -0.8670   12.2800   -2.4620 O   0  0  0  0  0  0  0  0  0  0  0  0
    1.4930   12.9570   -2.8440 C   0  0  2  0  0  0  0  0  0  0  0  0
    0.4380   11.7240   -4.4570 C   0  0  0  0  0  0  0  0  0  0  0  0
    1.2150   14.3070   -3.5160 C   0  0  0  0  0  0  0  0  0  0  0  0
    2.5670   12.3650   -3.5970 O   0  0  0  0  0  0  0  0  0  0  0  0
    1.2710   12.4930   -5.3030 C   0  0  0  0  0  0  0  0  0  0  0  0
   -0.2030   10.8700   -5.3130 C   0  0  0  0  0  0  0  0  0  0  0  0
    1.1780   12.1620   -6.5630 N   0  0  0  0  0  0  0  0  0  0  0  0
    0.2730   11.1640   -6.5720 N   0  0  0  0  0  0  0  0  0  0  0  0
   -0.0570   10.5750   -7.7930 C   0  0  0  0  0  0  0  0  0  0  0  0
   -1.1600    9.7430   -7.9260 C   0  0  0  0  0  0  0  0  0  0  0  0
    0.7480   10.8410   -8.8970 C   0  0  0  0  0  0  0  0  0  0  0  0
   -1.4440    9.1880   -9.1700 C   0  0  0  0  0  0  0  0  0  0  0  0
    0.4710   10.2920  -10.1320 C   0  0  0  0  0  0  0  0  0  0  0  0
   -0.6320    9.4600  -10.2710 C   0  0  0  0  0  0  0  0  0  0  0  0
  2  1  1  0
  2  3  1  0
  2  4  1  0
  2  5  1  0
  4  6  1  6
  4  7  1  0
  5  8  1  0
  5  9  2  0
  8 10  2  0
  9 11  1  0
 10 11  1  0
 11 12  1  0
 12 13  2  0
 12 14  1  0
 13 15  1  0
 14 16  2  0
 15 17  2  0
 16 17  1  0
M  END
