mac-x0527-diamond-x0962_3_A
     RDKit          3D

 24 26  0  0  0  0  0  0  0  0999 V2000
   -3.7990   15.3350   -3.6290 O   0  0  0  0  0  0  0  0  0  0  0  0
   -3.1570   15.0900   -2.6160 C   0  0  0  0  0  0  0  0  0  0  0  0
   -1.8050   14.8370   -2.6100 N   0  0  0  0  0  0  0  0  0  0  0  0
   -3.8130   15.0460   -1.2790 C   0  0  0  0  0  0  0  0  0  0  0  0
   -1.0410   14.8130   -3.8300 C   0  0  0  0  0  0  0  0  0  0  0  0
   -5.1900   15.1140   -1.1900 C   0  0  0  0  0  0  0  0  0  0  0  0
   -3.0070   14.9350   -0.1740 N   0  0  0  0  0  0  0  0  0  0  0  0
   -0.9470   13.4130   -4.3700 C   0  0  0  0  0  0  0  0  0  0  0  0
   -5.8370   15.0710   -0.0000 N   0  0  0  0  0  0  0  0  0  0  0  0
   -3.6660   14.8970    1.0090 C   0  0  0  0  0  0  0  0  0  0  0  0
   -1.7950   12.3950   -3.9060 C   0  0  0  0  0  0  0  0  0  0  0  0
    0.0030   13.1180   -5.3500 C   0  0  0  0  0  0  0  0  0  0  0  0
   -5.0440   14.9610    1.0950 C   0  0  0  0  0  0  0  0  0  0  0  0
   -1.6880   11.1050   -4.4180 C   0  0  0  0  0  0  0  0  0  0  0  0
    0.1140   11.8270   -5.8640 C   0  0  0  0  0  0  0  0  0  0  0  0
    1.1320   11.5280   -6.9230 C   0  0  0  0  0  0  0  0  0  0  0  0
   -0.7370   10.8230   -5.3910 C   0  0  0  0  0  0  0  0  0  0  0  0
    0.4740   11.1140   -8.2370 C   0  0  1  0  0  0  0  0  0  0  0  0
    1.3350   11.0710   -9.3890 N   0  0  0  0  0  0  0  0  0  0  0  0
   -0.2340    9.8460   -8.0420 C   0  0  0  0  0  0  0  0  0  0  0  0
    0.2370    8.6180   -8.4340 N   0  0  0  0  0  0  0  0  0  0  0  0
   -1.4480    9.5970   -7.4580 C   0  0  0  0  0  0  0  0  0  0  0  0
   -0.7020    7.7020   -8.0710 C   0  0  0  0  0  0  0  0  0  0  0  0
   -1.7330    8.2640   -7.4790 N   0  0  0  0  0  0  0  0  0  0  0  0
  1  2  2  0
  2  3  1  0
  2  4  1  0
  3  5  1  0
  4  6  2  0
  4  7  1  0
  5  8  1  0
  6  9  1  0
  7 10  2  0
  8 11  2  0
  8 12  1  0
  9 13  2  0
 10 13  1  0
 11 14  1  0
 12 15  2  0
 15 16  1  0
 14 17  2  0
 15 17  1  0
 16 18  1  0
 18 19  1  6
 18 20  1  0
 20 21  1  0
 20 22  2  0
 21 23  1  0
 22 24  1  0
 23 24  2  0
M  END
