mac-x0397-mac-x0344
     RDKit          3D

 26 28  0  0  0  0  0  0  0  0999 V2000
   -6.4540   15.1500   -2.4940 Cl  0  0  0  0  0  0  0  0  0  0  0  0
   -4.9080   14.9910   -1.7950 C   0  0  0  0  0  0  0  0  0  0  0  0
   -4.9070   14.9300   -0.4040 C   0  0  0  0  0  0  0  0  0  0  0  0
   -3.7220   14.9200   -2.5340 C   0  0  0  0  0  0  0  0  0  0  0  0
   -6.0030   14.9840    0.4340 N   0  0  0  0  0  0  0  0  0  0  0  0
   -3.6820   14.7970    0.2280 C   0  0  0  0  0  0  0  0  0  0  0  0
   -2.4980   14.7770   -1.8600 C   0  0  0  0  0  0  0  0  0  0  0  0
   -1.1760   14.6820   -2.5760 C   0  0  0  0  0  0  0  0  0  0  0  0
   -5.6170   14.9010    1.6670 C   0  0  0  0  0  0  0  0  0  0  0  0
   -3.9290   14.7500    1.9080 S   0  0  0  0  0  0  0  0  0  0  0  0
   -2.4790   14.7170   -0.4640 C   0  0  0  0  0  0  0  0  0  0  0  0
   -6.4920   14.9360    2.6820 N   0  0  0  0  0  0  0  0  0  0  0  0
   -1.1660   15.1770   -4.0180 C   0  0  0  0  0  0  0  0  0  0  0  0
   -0.2490   14.3230   -4.8760 C   0  0  0  0  0  0  0  0  0  0  0  0
    1.0180   14.0810   -4.1710 N   0  0  0  0  0  0  0  0  0  0  0  0
    1.3210   12.8840   -3.8820 C   0  0  0  0  0  0  0  0  0  0  0  0
    2.4520   12.5410   -3.2890 O   0  0  0  0  0  0  0  0  0  0  0  0
    0.4180   11.6880   -4.1900 C   0  0  0  0  0  0  0  0  0  0  0  0
    0.0620   11.0030   -3.2370 O   0  0  0  0  0  0  0  0  0  0  0  0
    0.1390   11.5630   -5.5250 N   0  0  0  0  0  0  0  0  0  0  0  0
   -0.6970   10.6200   -6.1370 C   0  0  0  0  0  0  0  0  0  0  0  0
   -0.3850    9.9850   -7.3370 C   0  0  0  0  0  0  0  0  0  0  0  0
   -1.9020   10.3100   -5.4920 C   0  0  0  0  0  0  0  0  0  0  0  0
   -1.2650    9.0530   -7.8890 C   0  0  0  0  0  0  0  0  0  0  0  0
   -2.7820    9.3780   -6.0450 C   0  0  0  0  0  0  0  0  0  0  0  0
   -2.4640    8.7480   -7.2440 C   0  0  0  0  0  0  0  0  0  0  0  0
  1  2  1  0
  2  3  2  0
  2  4  1  0
  3  5  1  0
  3  6  1  0
  4  7  2  0
  7  8  1  0
  5  9  2  0
  6 10  1  0
  9 10  1  0
  6 11  2  0
  7 11  1  0
  9 12  1  0
  8 13  1  0
 13 14  1  0
 14 15  1  0
 15 16  2  3
 16 17  1  0
 16 18  1  0
 18 19  2  0
 18 20  1  0
 20 21  1  0
 21 22  2  0
 21 23  1  0
 22 24  1  0
 23 25  2  0
 24 26  2  0
 25 26  1  0
M  END
