mac-x0375-mac-x0224
     RDKit          3D

 22 23  0  0  0  0  0  0  0  0999 V2000
    1.1940   13.2210   -2.8890 N   0  0  0  0  0  0  0  0  0  0  0  0
    0.6680   12.2120   -3.6320 C   0  0  0  0  0  0  0  0  0  0  0  0
    0.3620   11.1040   -3.1890 O   0  0  0  0  0  0  0  0  0  0  0  0
    0.5120   14.1500   -2.2770 C   0  0  0  0  0  0  0  0  0  0  0  0
    0.5330   12.5950   -5.1140 C   0  0  0  0  0  0  0  0  0  0  0  0
    1.2240   15.0590   -1.6330 O   0  0  0  0  0  0  0  0  0  0  0  0
   -0.9580   14.4330   -2.1250 C   0  0  0  0  0  0  0  0  0  0  0  0
    0.6640   11.4740   -5.9590 O   0  0  0  0  0  0  0  0  0  0  0  0
   -1.4350   14.5110   -0.8090 C   0  0  0  0  0  0  0  0  0  0  0  0
   -1.8730   14.6450   -3.1810 C   0  0  0  0  0  0  0  0  0  0  0  0
   -1.5390   14.6060   -4.5060 O   0  0  0  0  0  0  0  0  0  0  0  0
   -0.4190   10.6630   -6.0850 C   0  0  0  0  0  0  0  0  0  0  0  0
   -2.7720   14.7910   -0.5220 C   0  0  0  0  0  0  0  0  0  0  0  0
   -3.2220   14.9230   -2.8990 C   0  0  0  0  0  0  0  0  0  0  0  0
   -3.1990   14.8660    1.2100 S   0  0  0  0  0  0  0  0  0  0  0  0
   -0.4530    9.4820   -6.8180 C   0  0  0  0  0  0  0  0  0  0  0  0
   -1.5660   11.0870   -5.4070 C   0  0  0  0  0  0  0  0  0  0  0  0
   -3.6710   14.9980   -1.5740 C   0  0  0  0  0  0  0  0  0  0  0  0
   -4.9990   15.0270    1.1540 C   0  0  0  0  0  0  0  0  0  0  0  0
   -1.6230    8.7280   -6.8720 C   0  0  0  0  0  0  0  0  0  0  0  0
   -2.7410   10.3350   -5.4600 C   0  0  0  0  0  0  0  0  0  0  0  0
   -2.7660    9.1540   -6.1950 C   0  0  0  0  0  0  0  0  0  0  0  0
  1  2  1  0
  2  3  2  0
  1  4  2  3
  2  5  1  0
  4  6  1  0
  4  7  1  0
  5  8  1  0
  7  9  2  0
  7 10  1  0
 10 11  1  0
  8 12  1  0
  9 13  1  0
 10 14  2  0
 13 15  1  0
 12 16  2  0
 12 17  1  0
 13 18  2  0
 14 18  1  0
 15 19  1  0
 16 20  1  0
 17 21  2  0
 20 22  2  0
 21 22  1  0
M  END
