mac-x0263-mac-x0277
     RDKit          3D

 28 30  0  0  0  0  0  0  0  0999 V2000
  -11.5370   14.2820    2.2220 O   0  0  0  0  0  0  0  0  0  0  0  0
  -10.8800   15.3150    2.7720 C   0  0  0  0  0  0  0  0  0  0  0  0
  -11.3980   15.9670    3.6560 O   0  0  0  0  0  0  0  0  0  0  0  0
   -9.5230   15.5620    2.1810 C   0  0  0  0  0  0  0  0  0  0  0  0
   -8.9400   14.3080    1.5560 C   0  0  0  0  0  0  0  0  0  0  0  0
   -7.6230   14.5460    0.9160 C   0  0  0  0  0  0  0  0  0  0  0  0
   -7.4700   14.7330   -0.4320 N   0  0  0  0  0  0  0  0  0  0  0  0
   -6.4650   14.6050    1.5320 N   0  0  0  0  0  0  0  0  0  0  0  0
   -6.1400   14.9140   -0.6860 C   0  0  0  0  0  0  0  0  0  0  0  0
   -5.5300   14.8310    0.5580 C   0  0  0  0  0  0  0  0  0  0  0  0
   -5.4460   15.1310   -1.8690 C   0  0  0  0  0  0  0  0  0  0  0  0
   -4.1450   14.9730    0.6560 C   0  0  0  0  0  0  0  0  0  0  0  0
   -4.0600   15.2580   -1.7720 C   0  0  0  0  0  0  0  0  0  0  0  0
   -3.4210   15.1830   -0.5200 C   0  0  0  0  0  0  0  0  0  0  0  0
   -3.2430   15.4730   -3.0170 C   0  0  0  0  0  0  0  0  0  0  0  0
   -3.6800   14.8610   -4.3370 C   0  0  0  0  0  0  0  0  0  0  0  0
   -2.8280   15.4270   -5.4780 C   0  0  0  0  0  0  0  0  0  0  0  0
   -1.3610   15.5670   -5.1120 C   0  0  0  0  0  0  0  0  0  0  0  0
   -0.6570   14.3760   -4.8520 C   0  0  0  0  0  0  0  0  0  0  0  0
   -0.6610   16.7780   -5.0140 C   0  0  0  0  0  0  0  0  0  0  0  0
   -1.4040   18.3050   -5.3130 Cl  0  0  0  0  0  0  0  0  0  0  0  0
    0.6970   14.3710   -4.5020 C   0  0  0  0  0  0  0  0  0  0  0  0
    0.6960   16.7840   -4.6630 C   0  0  0  0  0  0  0  0  0  0  0  0
    1.4020   13.0660   -4.2310 C   0  0  0  0  0  0  0  0  0  0  0  0
    1.3680   15.5860   -4.4090 C   0  0  0  0  0  0  0  0  0  0  0  0
    0.9330   12.4150   -2.9540 C   0  0  0  0  0  0  0  0  0  0  0  0
    0.2340   11.2800   -3.1530 O   0  0  0  0  0  0  0  0  0  0  0  0
    1.1270   12.8190   -1.8210 O   0  0  0  0  0  0  0  0  0  0  0  0
  1  2  1  0
  2  3  2  0
  2  4  1  0
  4  5  1  0
  5  6  1  0
  6  7  1  0
  6  8  2  0
  7  9  1  0
  8 10  1  0
  9 10  2  0
  9 11  1  0
 10 12  1  0
 11 13  2  0
 12 14  2  0
 13 14  1  0
 13 15  1  0
 15 16  1  0
 16 17  1  0
 17 18  1  0
 18 19  2  0
 18 20  1  0
 20 21  1  0
 19 22  1  0
 20 23  2  0
 22 24  1  0
 22 25  2  0
 23 25  1  0
 24 26  1  0
 26 27  1  0
 26 28  2  0
M  END
