mac-x0348-mac-x0453
     RDKit          3D

 25 27  0  0  0  0  0  0  0  0999 V2000
    0.7310   18.5820   -5.8750 C   0  0  0  0  0  0  0  0  0  0  0  0
    0.0670   17.4310   -5.3350 N   0  0  0  0  0  0  0  0  0  0  0  0
    0.6400   16.5590   -4.4550 C   0  0  0  0  0  0  0  0  0  0  0  0
   -1.2150   17.0360   -5.6210 C   0  0  0  0  0  0  0  0  0  0  0  0
   -0.2880   15.5780   -4.1720 C   0  0  0  0  0  0  0  0  0  0  0  0
   -1.4530   15.8720   -4.9110 C   0  0  0  0  0  0  0  0  0  0  0  0
   -2.1880   17.5900   -6.4420 C   0  0  0  0  0  0  0  0  0  0  0  0
   -0.1430   14.4020   -3.2640 C   0  0  1  0  0  0  0  0  0  0  0  0
   -2.6940   15.2280   -5.0300 C   0  0  0  0  0  0  0  0  0  0  0  0
   -3.4150   16.9280   -6.5530 C   0  0  0  0  0  0  0  0  0  0  0  0
    0.7600   13.3260   -3.8740 C   0  0  0  0  0  0  0  0  0  0  0  0
    0.2250   14.7700   -1.8110 C   0  0  0  0  0  0  0  0  0  0  0  0
   -3.6700   15.7610   -5.8580 C   0  0  0  0  0  0  0  0  0  0  0  0
    0.9580   12.2530   -2.8520 C   0  0  0  0  0  0  0  0  0  0  0  0
   -0.7040   14.1540   -0.7420 C   0  0  0  0  0  0  0  0  0  0  0  0
    1.5780   12.4140   -1.8360 O   0  0  0  0  0  0  0  0  0  0  0  0
    0.3630   11.0770   -3.1530 O   0  0  0  0  0  0  0  0  0  0  0  0
   -2.1370   14.4580   -0.7540 N   0  0  0  0  0  0  0  0  0  0  0  0
   -2.9110   14.4710    0.3680 C   0  0  0  0  0  0  0  0  0  0  0  0
   -2.9610   14.7690   -1.8130 C   0  0  0  0  0  0  0  0  0  0  0  0
   -4.1750   14.7880   -0.0570 C   0  0  0  0  0  0  0  0  0  0  0  0
   -4.2020   14.9720   -1.4180 N   0  0  0  0  0  0  0  0  0  0  0  0
   -5.4120   14.9380    0.7380 C   0  0  0  0  0  0  0  0  0  0  0  0
   -6.0960   13.6290    1.1400 C   0  0  0  0  0  0  0  0  0  0  0  0
   -6.9260   13.7880    2.3390 N   0  0  0  0  0  0  0  0  0  0  0  0
  1  2  1  0
  2  3  1  0
  2  4  1  0
  3  5  2  0
  4  6  2  0
  5  6  1  0
  4  7  1  0
  5  8  1  0
  6  9  1  0
  7 10  2  0
  8 11  1  6
  8 12  1  0
  9 13  2  0
 10 13  1  0
 11 14  1  0
 12 15  1  0
 14 16  2  0
 14 17  1  0
 15 18  1  0
 18 19  1  0
 18 20  1  0
 19 21  2  0
 20 22  2  0
 21 22  1  0
 21 23  1  0
 23 24  1  0
 24 25  1  0
M  END
