mac-x0453-mac-x0142
     RDKit          3D

 21 24  0  0  0  0  0  0  0  0999 V2000
   -7.0510   13.6590    2.4190 N   0  0  0  0  0  0  0  0  0  0  0  0
   -6.5090   14.3650    1.2640 C   0  0  0  0  0  0  0  0  0  0  0  0
   -5.6020   13.4790    0.4170 C   0  0  0  0  0  0  0  0  0  0  0  0
   -4.4570   14.1910   -0.2340 C   0  0  0  0  0  0  0  0  0  0  0  0
   -3.1590   14.0120   -0.0070 C   0  0  0  0  0  0  0  0  0  0  0  0
   -4.7210   15.1420   -1.1990 N   0  0  0  0  0  0  0  0  0  0  0  0
   -2.3930   15.0010   -0.8020 C   0  0  1  0  0  0  0  0  0  0  0  0
   -3.5530   15.5750   -1.5540 C   0  0  0  0  0  0  0  0  0  0  0  0
   -1.9800   15.9140    0.3080 C   0  0  0  0  0  0  0  0  0  0  0  0
   -1.0270   14.8550   -1.4840 C   0  0  2  0  0  0  0  0  0  0  0  0
   -0.7800   14.3500   -2.8300 N   0  0  0  0  0  0  0  0  0  0  0  0
   -0.0580   14.2270   -0.5750 N   0  0  0  0  0  0  0  0  0  0  0  0
   -1.3300   15.1030    1.3180 N   0  0  0  0  0  0  0  0  0  0  0  0
   -1.8900   14.1580   -3.7590 C   0  0  0  0  0  0  0  0  0  0  0  0
    0.4430   14.7800   -3.4770 C   0  0  0  0  0  0  0  0  0  0  0  0
   -0.0540   14.6330    0.8300 C   0  0  0  0  0  0  0  0  0  0  0  0
    0.8410   13.5760   -4.2880 C   0  0  0  0  0  0  0  0  0  0  0  0
   -1.5840   13.0980   -4.8350 C   0  0  0  0  0  0  0  0  0  0  0  0
    2.2980   13.2150   -4.4970 C   0  0  0  0  0  0  0  0  0  0  0  0
    1.4850   12.4700   -3.4830 C   0  0  0  0  0  0  0  0  0  0  0  0
   -0.1480   13.1890   -5.3690 C   0  0  0  0  0  0  0  0  0  0  0  0
  1  2  1  0
  2  3  1  0
  3  4  1  0
  4  5  2  0
  4  6  1  0
  7  5  1  1
  6  8  2  0
  7  8  1  0
  7  9  1  0
  7 10  1  0
 10 11  1  6
 10 12  1  0
  9 13  1  0
 11 14  1  0
 11 15  1  0
 12 16  1  0
 13 16  1  0
 17 15  1  0
 14 18  1  0
 17 19  1  0
 17 20  1  0
 19 20  1  0
 17 21  1  0
 18 21  1  0
M  END
