mac-x0193-mac-x0328
     RDKit          3D

 26 27  0  0  0  0  0  0  0  0999 V2000
    0.4690   11.1420   -2.9780 O   0  0  0  0  0  0  0  0  0  0  0  0
    0.9960   12.2100   -3.6210 C   0  0  0  0  0  0  0  0  0  0  0  0
    1.3090   13.2600   -2.9930 N   0  0  0  0  0  0  0  0  0  0  0  0
    1.2030   12.1110   -5.1110 C   0  0  0  0  0  0  0  0  0  0  0  0
    0.1220   11.5540   -5.9220 N   0  0  0  0  0  0  0  0  0  0  0  0
    1.1600   13.5170   -1.5880 C   0  0  0  0  0  0  0  0  0  0  0  0
    0.6030   11.2330   -7.1540 C   0  0  0  0  0  0  0  0  0  0  0  0
    0.4920   14.8760   -1.4680 C   0  0  0  0  0  0  0  0  0  0  0  0
    1.7560   11.3510   -7.3520 O   0  0  0  0  0  0  0  0  0  0  0  0
   -0.3120   10.7710   -8.0670 N   0  0  0  0  0  0  0  0  0  0  0  0
   -0.9360   14.8390   -1.1780 N   0  0  0  0  0  0  0  0  0  0  0  0
   -1.8790   14.8830   -2.0540 C   0  0  0  0  0  0  0  0  0  0  0  0
    0.0700    9.9390   -9.2240 C   0  0  0  0  0  0  0  0  0  0  0  0
   -1.6300   14.9340   -3.3840 O   0  0  0  0  0  0  0  0  0  0  0  0
    1.0980    8.8670   -8.9020 C   0  0  0  0  0  0  0  0  0  0  0  0
    0.5180   10.7250  -10.4450 C   0  0  0  0  0  0  0  0  0  0  0  0
   -3.3070   14.9320   -1.7460 C   0  0  0  0  0  0  0  0  0  0  0  0
    1.9370    8.3900  -10.0880 C   0  0  0  0  0  0  0  0  0  0  0  0
    0.6550    9.8420  -11.6910 C   0  0  0  0  0  0  0  0  0  0  0  0
   -3.6490   14.8520   -0.3970 C   0  0  0  0  0  0  0  0  0  0  0  0
   -4.2840   15.0650   -2.7330 C   0  0  0  0  0  0  0  0  0  0  0  0
    1.1300    8.4230  -11.3690 C   0  0  0  0  0  0  0  0  0  0  0  0
   -4.9790   14.9050   -0.0240 C   0  0  0  0  0  0  0  0  0  0  0  0
   -5.6230   15.1200   -2.3500 C   0  0  0  0  0  0  0  0  0  0  0  0
   -5.9590   15.0410   -0.9990 C   0  0  0  0  0  0  0  0  0  0  0  0
   -7.2560   15.0940   -0.5900 O   0  0  0  0  0  0  0  0  0  0  0  0
  1  2  1  0
  2  3  2  3
  2  4  1  0
  4  5  1  0
  3  6  1  0
  5  7  1  0
  6  8  1  0
  7  9  2  0
  7 10  1  0
  8 11  1  0
 11 12  2  3
 10 13  1  0
 12 14  1  0
 13 15  1  0
 13 16  1  0
 12 17  1  0
 15 18  1  0
 16 19  1  0
 17 20  2  0
 17 21  1  0
 18 22  1  0
 19 22  1  0
 20 23  1  0
 21 24  2  0
 23 25  2  0
 24 25  1  0
 25 26  1  0
M  END
