mac-x0439-diamond-x0864_0_A
     RDKit          3D

 24 26  0  0  0  0  0  0  0  0999 V2000
   -3.1510   15.7610   -4.9670 Cl  0  0  0  0  0  0  0  0  0  0  0  0
   -1.6770   16.5990   -5.2270 C   0  0  0  0  0  0  0  0  0  0  0  0
   -0.4170   15.8370   -5.0460 C   0  0  2  0  0  0  0  0  0  0  0  0
   -1.6340   17.8910   -5.6100 C   0  0  0  0  0  0  0  0  0  0  0  0
   -0.1310   14.7760   -4.0520 C   0  0  0  0  0  0  0  0  0  0  0  0
    0.7330   16.7390   -4.7270 C   0  0  0  0  0  0  0  0  0  0  0  0
   -0.3600   18.5550   -5.8340 C   0  0  0  0  0  0  0  0  0  0  0  0
    1.0470   15.0440   -3.4750 C   0  0  0  0  0  0  0  0  0  0  0  0
    1.5680   16.2500   -3.8730 N   0  0  0  0  0  0  0  0  0  0  0  0
    0.8140   18.0440   -5.4250 C   0  0  0  0  0  0  0  0  0  0  0  0
    1.7210   14.1200   -2.5000 C   0  0  0  0  0  0  0  0  0  0  0  0
    2.6580   14.7480   -1.7480 O   0  0  0  0  0  0  0  0  0  0  0  0
    1.6240   12.8750   -2.2460 N   0  0  0  0  0  0  0  0  0  0  0  0
    0.7050   12.0120   -2.9770 C   0  0  2  0  0  0  0  0  0  0  0  0
    0.4120   12.6300   -4.3690 C   0  0  0  0  0  0  0  0  0  0  0  0
   -0.4820   11.7520   -2.2560 O   0  0  0  0  0  0  0  0  0  0  0  0
   -0.2320   11.6990   -5.2900 N   0  0  0  0  0  0  0  0  0  0  0  0
   -1.4330   11.1190   -4.9320 C   0  0  0  0  0  0  0  0  0  0  0  0
    0.4650   11.3280   -6.4290 C   0  0  0  0  0  0  0  0  0  0  0  0
    1.4960   11.8680   -6.8150 O   0  0  0  0  0  0  0  0  0  0  0  0
   -1.9420   10.1110   -5.6430 C   0  0  0  0  0  0  0  0  0  0  0  0
   -0.0890   10.1880   -7.1940 C   0  0  0  0  0  0  0  0  0  0  0  0
   -1.2380    9.6200   -6.8000 C   0  0  0  0  0  0  0  0  0  0  0  0
   -1.9850    8.1760   -7.7140 Br  0  0  0  0  0  0  0  0  0  0  0  0
  1  2  1  0
  2  3  1  0
  2  4  2  0
  3  5  1  1
  3  6  1  0
  4  7  1  0
  5  8  2  0
  6  9  2  0
  8  9  1  0
  6 10  1  0
  7 10  2  0
  8 11  1  0
 11 12  1  0
 11 13  2  3
 13 14  1  0
 14 15  1  0
 14 16  1  1
 15 17  1  0
 17 18  1  0
 17 19  1  0
 19 20  2  0
 18 21  2  0
 19 22  1  0
 21 23  1  0
 22 23  2  0
 23 24  1  0
M  END
