mac-x0527-mac-x0439
     RDKit          3D

 28 31  0  0  0  0  0  0  0  0999 V2000
   -2.7100   16.6330   -3.3310 N   0  0  0  0  0  0  0  0  0  0  0  0
   -2.7790   15.5130   -2.6480 C   0  0  0  0  0  0  0  0  0  0  0  0
   -1.8640   14.5240   -2.9220 N   0  0  0  0  0  0  0  0  0  0  0  0
   -1.7160   17.0250   -4.2420 C   0  0  0  0  0  0  0  0  0  0  0  0
   -3.7440   15.2540   -1.5030 C   0  0  0  0  0  0  0  0  0  0  0  0
   -0.3050   16.9790   -3.7020 C   0  0  1  0  0  0  0  0  0  0  0  0
   -1.8610   17.4940   -5.5110 C   0  0  0  0  0  0  0  0  0  0  0  0
   -1.2810   14.4810   -4.2520 C   0  0  0  0  0  0  0  0  0  0  0  0
   -5.1260   15.1530   -1.5920 C   0  0  0  0  0  0  0  0  0  0  0  0
   -3.0940   15.1390   -0.3000 N   0  0  0  0  0  0  0  0  0  0  0  0
    0.1330   15.8790   -2.8100 C   0  0  0  0  0  0  0  0  0  0  0  0
    0.6780   16.7130   -4.7940 C   0  0  0  0  0  0  0  0  0  0  0  0
   -0.6870   17.9490   -6.2720 C   0  0  0  0  0  0  0  0  0  0  0  0
   -1.1260   13.0910   -4.7790 C   0  0  0  0  0  0  0  0  0  0  0  0
   -5.9030   14.9340   -0.4870 N   0  0  0  0  0  0  0  0  0  0  0  0
   -3.8690   14.9240    0.7860 C   0  0  0  0  0  0  0  0  0  0  0  0
    1.1580   15.2300   -3.3650 C   0  0  0  0  0  0  0  0  0  0  0  0
    1.5100   15.7260   -4.6010 N   0  0  0  0  0  0  0  0  0  0  0  0
    0.5800   17.6000   -5.9540 C   0  0  0  0  0  0  0  0  0  0  0  0
    1.8200   14.0920   -2.6710 C   0  0  0  0  0  0  0  0  0  0  0  0
   -1.9820   12.0580   -4.3870 C   0  0  0  0  0  0  0  0  0  0  0  0
   -0.0970   12.8250   -5.6900 C   0  0  0  0  0  0  0  0  0  0  0  0
   -5.2450   14.8230    0.6970 C   0  0  0  0  0  0  0  0  0  0  0  0
    3.1510   14.2410   -2.5600 O   0  0  0  0  0  0  0  0  0  0  0  0
    1.2780   13.0990   -2.2120 O   0  0  0  0  0  0  0  0  0  0  0  0
   -1.8080   10.7730   -4.9040 C   0  0  0  0  0  0  0  0  0  0  0  0
    0.0750   11.5450   -6.2050 C   0  0  0  0  0  0  0  0  0  0  0  0
   -0.7800   10.5190   -5.8120 C   0  0  0  0  0  0  0  0  0  0  0  0
  1  2  2  3
  2  3  1  0
  1  4  1  0
  2  5  1  0
  4  6  1  0
  4  7  2  0
  3  8  1  0
  5  9  2  0
  5 10  1  0
  6 11  1  1
  6 12  1  0
  7 13  1  0
  8 14  1  0
  9 15  1  0
 10 16  2  0
 11 17  2  0
 12 18  2  0
 17 18  1  0
 12 19  1  0
 13 19  2  0
 17 20  1  0
 14 21  2  0
 14 22  1  0
 15 23  2  0
 16 23  1  0
 20 24  1  0
 20 25  2  0
 21 26  1  0
 22 27  2  0
 26 28  2  0
 27 28  1  0
M  END
