mac-x0338-mac-x0361
     RDKit          3D

 11 11  0  0  0  0  0  0  0  0999 V2000
   -4.3180   13.5610    1.6420 N   0  0  0  0  0  0  0  0  0  0  0  0
   -5.2370   14.4520    1.0280 C   0  0  0  0  0  0  0  0  0  0  0  0
   -5.3180   15.5120    1.9110 O   0  0  0  0  0  0  0  0  0  0  0  0
   -6.5190   13.8800    1.0080 O   0  0  0  0  0  0  0  0  0  0  0  0
   -4.8070   14.7460   -0.3960 C   0  0  0  0  0  0  0  0  0  0  0  0
   -3.4660   14.7770   -0.7150 N   0  0  0  0  0  0  0  0  0  0  0  0
   -5.7880   14.9480   -1.3520 C   0  0  0  0  0  0  0  0  0  0  0  0
   -3.2180   15.0060   -2.0250 C   0  0  0  0  0  0  0  0  0  0  0  0
   -5.5100   15.1730   -2.6460 N   0  0  0  0  0  0  0  0  0  0  0  0
   -1.9180   15.0370   -2.4010 O   0  0  0  0  0  0  0  0  0  0  0  0
   -4.2000   15.1970   -2.9630 C   0  0  0  0  0  0  0  0  0  0  0  0
  1  2  1  0
  2  3  1  0
  2  4  1  0
  2  5  1  0
  5  6  2  0
  5  7  1  0
  6  8  1  0
  7  9  2  0
  8 10  1  0
  8 11  2  0
  9 11  1  0
M  END
