mac-x0302-diamond-x0855_0_A
     RDKit          3D

 23 24  0  0  0  0  0  0  0  0999 V2000
    1.3380   14.2950   -3.8180 O   0  0  0  0  0  0  0  0  0  0  0  0
    0.2420   14.0870   -3.0560 C   0  0  0  0  0  0  0  0  0  0  0  0
   -0.1090   12.9190   -2.7700 N   0  0  0  0  0  0  0  0  0  0  0  0
   -0.4790   15.2820   -2.6390 C   0  0  0  0  0  0  0  0  0  0  0  0
   -1.6850   14.8470   -1.9590 N   0  0  0  0  0  0  0  0  0  0  0  0
    0.5630   11.9160   -3.3010 C   0  0  0  0  0  0  0  0  0  0  0  0
   -2.9710   15.2210   -2.2880 C   0  0  0  0  0  0  0  0  0  0  0  0
    0.9440   10.9490   -2.6800 O   0  0  0  0  0  0  0  0  0  0  0  0
    0.6870   12.1420   -4.7850 C   0  0  0  0  0  0  0  0  0  0  0  0
   -3.3430   15.5790   -3.4000 O   0  0  0  0  0  0  0  0  0  0  0  0
   -3.8820   15.1490   -1.1260 C   0  0  0  0  0  0  0  0  0  0  0  0
   -0.4050   11.3970   -5.3340 N   0  0  0  0  0  0  0  0  0  0  0  0
   -5.2630   15.0280   -1.3120 C   0  0  0  0  0  0  0  0  0  0  0  0
   -3.3460   15.1980    0.1680 C   0  0  0  0  0  0  0  0  0  0  0  0
   -0.3750   10.4600   -6.3120 C   0  0  0  0  0  0  0  0  0  0  0  0
   -1.6390   11.6210   -4.8290 N   0  0  0  0  0  0  0  0  0  0  0  0
   -6.0800   14.9490   -0.1900 C   0  0  0  0  0  0  0  0  0  0  0  0
   -4.1730   15.1220    1.2710 C   0  0  0  0  0  0  0  0  0  0  0  0
   -1.6630   10.0430   -6.4390 C   0  0  0  0  0  0  0  0  0  0  0  0
   -2.4110   10.7790   -5.5170 C   0  0  0  0  0  0  0  0  0  0  0  0
   -7.4320   14.8230   -0.2960 O   0  0  0  0  0  0  0  0  0  0  0  0
   -2.3310    8.7490   -7.5950 Br  0  0  0  0  0  0  0  0  0  0  0  0
   -5.5430   14.9930    1.0940 C   0  0  0  0  0  0  0  0  0  0  0  0
  1  2  1  0
  2  3  2  3
  2  4  1  0
  4  5  1  0
  3  6  1  0
  5  7  1  0
  6  8  2  0
  6  9  1  0
  7 10  2  0
  7 11  1  0
  9 12  1  0
 11 13  2  0
 11 14  1  0
 12 15  1  0
 12 16  1  0
 13 17  1  0
 14 18  2  0
 15 19  2  0
 16 20  2  0
 19 20  1  0
 17 21  1  0
 19 22  1  0
 17 23  2  0
 18 23  1  0
M  END
