mac-x0412-mac-x0357
     RDKit          3D

 23 25  0  0  0  0  0  0  0  0999 V2000
   -7.7410   14.2730   -0.5770 O   0  0  0  0  0  0  0  0  0  0  0  0
   -6.8310   14.7880    0.0610 C   0  0  0  0  0  0  0  0  0  0  0  0
   -6.8860   14.8830    1.4350 N   0  0  0  0  0  0  0  0  0  0  0  0
   -5.5730   15.4090   -0.6190 C   0  0  1  0  0  0  0  0  0  0  0  0
   -4.3240   15.0350    0.1660 C   0  0  0  0  0  0  0  0  0  0  0  0
   -5.7650   14.9180    2.0690 C   0  0  0  0  0  0  0  0  0  0  0  0
   -5.4670   15.1160   -2.0830 C   0  0  0  0  0  0  0  0  0  0  0  0
   -4.4110   14.8100    1.4840 C   0  0  0  0  0  0  0  0  0  0  0  0
   -3.0650   14.9200   -0.5700 C   0  0  0  0  0  0  0  0  0  0  0  0
   -4.2990   14.8500   -2.6710 C   0  0  0  0  0  0  0  0  0  0  0  0
   -3.0500   14.8220   -1.9260 C   0  0  0  0  0  0  0  0  0  0  0  0
   -1.8100   14.6650   -2.7990 C   0  0  0  0  0  0  0  0  0  0  0  0
   -0.6590   14.1810   -2.0360 N   0  0  0  0  0  0  0  0  0  0  0  0
    0.0800   13.2800   -2.5810 C   0  0  0  0  0  0  0  0  0  0  0  0
    1.1340   12.8390   -1.8790 O   0  0  0  0  0  0  0  0  0  0  0  0
   -0.0070   12.6010   -3.8910 C   0  0  0  0  0  0  0  0  0  0  0  0
    1.0750   12.5740   -4.7950 C   0  0  0  0  0  0  0  0  0  0  0  0
   -1.2270   11.9780   -4.1990 C   0  0  0  0  0  0  0  0  0  0  0  0
    2.3960   13.2260   -4.4940 C   0  0  0  0  0  0  0  0  0  0  0  0
   -1.3900   11.3160   -5.4180 C   0  0  0  0  0  0  0  0  0  0  0  0
    0.8710   11.9000   -6.0080 C   0  0  0  0  0  0  0  0  0  0  0  0
    1.8370   11.8020   -6.9520 O   0  0  0  0  0  0  0  0  0  0  0  0
   -0.3360   11.2820   -6.3210 C   0  0  0  0  0  0  0  0  0  0  0  0
  1  2  2  0
  2  3  1  0
  2  4  1  0
  4  5  1  0
  3  6  2  0
  4  7  1  6
  5  8  2  0
  6  8  1  0
  5  9  1  0
  7 10  2  0
  9 11  2  0
 10 11  1  0
 11 12  1  0
 12 13  1  0
 13 14  2  3
 14 15  1  0
 14 16  1  0
 16 17  2  0
 16 18  1  0
 17 19  1  0
 18 20  2  0
 17 21  1  0
 21 22  1  0
 20 23  1  0
 21 23  2  0
M  END
