mac-x0398-mac-x0116
     RDKit          3D

 20 22  0  0  0  0  0  0  0  0999 V2000
   -5.9770   14.4220    1.9550 N   0  0  0  0  0  0  0  0  0  0  0  0
   -5.1710   14.6300    0.7810 C   0  0  2  0  0  0  0  0  0  0  0  0
   -3.8390   15.2930    1.0190 C   0  0  0  0  0  0  0  0  0  0  0  0
   -6.4340   13.1630    1.9610 C   0  0  0  0  0  0  0  0  0  0  0  0
   -5.8590   15.3290   -0.3560 C   0  0  0  0  0  0  0  0  0  0  0  0
   -6.3930   12.5000    0.7670 O   0  0  0  0  0  0  0  0  0  0  0  0
   -6.9560   12.3510    2.9290 C   0  0  0  0  0  0  0  0  0  0  0  0
   -5.2380   14.7580   -1.5880 C   0  0  1  0  0  0  0  0  0  0  0  0
   -2.9200   14.9670   -0.1870 C   0  0  2  0  0  0  0  0  0  0  0  0
   -7.2500   11.1230    2.3010 C   0  0  0  0  0  0  0  0  0  0  0  0
   -6.8870   11.2650    0.9830 C   0  0  0  0  0  0  0  0  0  0  0  0
   -5.7430   15.4060   -2.7480 O   0  0  0  0  0  0  0  0  0  0  0  0
   -3.6820   14.6930   -1.5630 C   0  0  2  0  0  0  0  0  0  0  0  0
   -2.1150   13.7120    0.1290 C   0  0  0  0  0  0  0  0  0  0  0  0
   -1.7860   15.9460   -0.1940 N   0  0  0  0  0  0  0  0  0  0  0  0
   -3.1370   15.3960   -2.7800 C   0  0  0  0  0  0  0  0  0  0  0  0
   -0.7330   14.0090   -0.2490 N   0  0  0  0  0  0  0  0  0  0  0  0
   -0.6460   15.2690    0.4100 C   0  0  0  0  0  0  0  0  0  0  0  0
   -3.7560   15.6380   -3.8060 O   0  0  0  0  0  0  0  0  0  0  0  0
   -1.8470   15.7450   -2.6840 O   0  0  0  0  0  0  0  0  0  0  0  0
  2  1  1  1
  2  3  1  0
  1  4  1  0
  2  5  1  0
  4  6  1  0
  4  7  2  0
  5  8  1  0
  9  3  1  1
  7 10  1  0
  6 11  1  0
 10 11  2  0
  8 12  1  6
  8 13  1  0
  9 13  1  0
  9 14  1  0
  9 15  1  0
 13 16  1  6
 14 17  1  0
 15 18  1  0
 17 18  1  0
 16 19  2  0
 16 20  1  0
M  END
