mac-x0411-mac-x0455
     RDKit          3D

 24 25  0  0  0  0  0  0  0  0999 V2000
    0.4000    8.5080   -7.3550 Cl  0  0  0  0  0  0  0  0  0  0  0  0
   -1.0430    9.0690   -6.5880 C   0  0  0  0  0  0  0  0  0  0  0  0
   -1.0860    9.7280   -5.3430 C   0  0  0  0  0  0  0  0  0  0  0  0
   -2.2280    8.8340   -7.2880 C   0  0  0  0  0  0  0  0  0  0  0  0
    0.0020   10.0110   -4.5730 O   0  0  0  0  0  0  0  0  0  0  0  0
   -2.3300   10.1340   -4.8360 C   0  0  0  0  0  0  0  0  0  0  0  0
   -3.4520    9.2430   -6.7700 C   0  0  0  0  0  0  0  0  0  0  0  0
   -2.4650   10.9480   -3.3130 Cl  0  0  0  0  0  0  0  0  0  0  0  0
    0.2020   11.3850   -4.3080 C   0  0  0  0  0  0  0  0  0  0  0  0
   -3.5060    9.8930   -5.5450 C   0  0  0  0  0  0  0  0  0  0  0  0
    0.6150   11.9580   -2.9430 C   0  0  0  0  0  0  0  0  0  0  0  0
    1.0960   13.2200   -3.1650 O   0  0  0  0  0  0  0  0  0  0  0  0
    0.5250   11.3570   -1.8830 O   0  0  0  0  0  0  0  0  0  0  0  0
    0.3770   14.3080   -2.7460 C   0  0  0  0  0  0  0  0  0  0  0  0
   -0.8510   14.5910   -3.6630 C   0  0  1  0  0  0  0  0  0  0  0  0
    0.6120   15.0280   -1.7810 O   0  0  0  0  0  0  0  0  0  0  0  0
   -2.0910   14.6060   -2.7530 C   0  0  0  0  0  0  0  0  0  0  0  0
   -0.7650   15.9210   -4.2020 O   0  0  0  0  0  0  0  0  0  0  0  0
   -0.9350   13.6330   -4.8540 C   0  0  0  0  0  0  0  0  0  0  0  0
   -2.1940   13.1170   -5.2210 C   0  0  0  0  0  0  0  0  0  0  0  0
    0.1860   13.2320   -5.6090 C   0  0  0  0  0  0  0  0  0  0  0  0
   -2.3330   12.2340   -6.2950 C   0  0  0  0  0  0  0  0  0  0  0  0
    0.0420   12.3430   -6.6830 C   0  0  0  0  0  0  0  0  0  0  0  0
   -1.2120   11.8470   -7.0240 C   0  0  0  0  0  0  0  0  0  0  0  0
  1  2  1  0
  2  3  2  0
  2  4  1  0
  3  5  1  0
  3  6  1  0
  4  7  2  0
  6  8  1  0
  5  9  1  0
  6 10  2  0
  7 10  1  0
  9 11  1  0
 11 12  1  0
 11 13  2  0
 12 14  1  0
 14 15  1  0
 14 16  2  0
 15 17  1  1
 15 18  1  0
 15 19  1  0
 19 20  2  0
 19 21  1  0
 20 22  1  0
 21 23  2  0
 22 24  2  0
 23 24  1  0
M  END
