mac-x0576-mac-x0385
     RDKit          3D

 15 16  0  0  0  0  0  0  0  0999 V2000
   -0.2970   14.1420    1.5970 N   0  0  0  0  0  0  0  0  0  0  0  0
   -1.1050   14.9920    0.7730 C   0  0  2  0  0  0  0  0  0  0  0  0
   -2.4710   15.2210    1.3030 N   0  0  0  0  0  0  0  0  0  0  0  0
   -1.1090   14.3560   -0.4900 N   0  0  0  0  0  0  0  0  0  0  0  0
   -3.1220   16.3560    0.6850 C   0  0  0  0  0  0  0  0  0  0  0  0
   -2.0200   14.7000   -1.4440 C   0  0  0  0  0  0  0  0  0  0  0  0
   -3.4670   14.5140    0.6300 C   0  0  2  0  0  0  0  0  0  0  0  0
   -1.6990   14.8710   -2.6170 O   0  0  0  0  0  0  0  0  0  0  0  0
   -3.5640   13.1930    1.0640 N   0  0  0  0  0  0  0  0  0  0  0  0
   -3.4340   14.8740   -0.8950 C   0  0  2  0  0  0  0  0  0  0  0  0
   -4.7090   14.8640    1.1930 N   0  0  0  0  0  0  0  0  0  0  0  0
   -5.8610   14.8580    0.4630 C   0  0  0  0  0  0  0  0  0  0  0  0
   -4.5720   14.3770   -1.6600 N   0  0  0  0  0  0  0  0  0  0  0  0
   -6.9380   14.7160    1.0310 O   0  0  0  0  0  0  0  0  0  0  0  0
   -5.7560   15.0390   -1.0610 C   0  0  0  0  0  0  0  0  0  0  0  0
  2  1  1  1
  2  3  1  0
  2  4  1  0
  3  5  1  0
  4  6  1  0
  3  7  1  0
  6  8  2  0
  7  9  1  6
  6 10  1  0
  7 10  1  0
  7 11  1  0
 11 12  1  0
 10 13  1  6
 12 14  2  0
 12 15  1  0
 13 15  1  0
M  END
