mac-x0338-diamond-x0962_2_B
     RDKit          3D

 16 17  0  0  0  0  0  0  0  0999 V2000
   -4.8390   15.5650    2.0670 N   0  0  0  0  0  0  0  0  0  0  0  0
   -5.6690   15.0470    1.0930 C   0  0  0  0  0  0  0  0  0  0  0  0
   -6.9580   14.7480    1.3810 N   0  0  0  0  0  0  0  0  0  0  0  0
   -4.9820   14.9420   -0.2450 C   0  0  0  0  0  0  0  0  0  0  0  0
   -3.6160   14.8360   -0.2450 N   0  0  0  0  0  0  0  0  0  0  0  0
   -5.7210   14.9720   -1.4110 C   0  0  0  0  0  0  0  0  0  0  0  0
   -7.6210   14.9630    2.6260 C   0  0  0  0  0  0  0  0  0  0  0  0
   -3.0600   14.7680   -1.4800 C   0  0  0  0  0  0  0  0  0  0  0  0
   -5.1550   14.8980   -2.6390 N   0  0  0  0  0  0  0  0  0  0  0  0
   -8.8740   15.5670    2.7120 C   0  0  0  0  0  0  0  0  0  0  0  0
   -7.1920   14.6640    3.8800 N   0  0  0  0  0  0  0  0  0  0  0  0
   -9.7450   16.0570    1.7130 C   0  0  0  0  0  0  0  0  0  0  0  0
   -3.8110   14.7970   -2.6430 C   0  0  0  0  0  0  0  0  0  0  0  0
   -9.1590   15.6280    4.0490 N   0  0  0  0  0  0  0  0  0  0  0  0
   -8.1130   15.0720    4.7110 C   0  0  0  0  0  0  0  0  0  0  0  0
  -10.5330   16.4710    0.9670 N   0  0  0  0  0  0  0  0  0  0  0  0
  1  2  1  0
  2  3  2  3
  2  4  1  0
  4  5  2  0
  4  6  1  0
  3  7  1  0
  5  8  1  0
  6  9  2  0
  7 10  2  0
  7 11  1  0
 10 12  1  0
  8 13  2  0
  9 13  1  0
 10 14  1  0
 11 15  2  0
 14 15  1  0
 12 16  3  0
M  END
