mac-x0212-diamond-x0727_0_A
     RDKit          3D

 28 29  0  0  0  0  0  0  0  0999 V2000
   -6.5220   12.7120    1.2030 C   0  0  0  0  0  0  0  0  0  0  0  0
   -6.9510   14.4310    1.0520 S   0  0  0  0  0  0  0  0  0  0  0  0
   -7.8530   14.8070    2.1170 O   0  0  0  0  0  0  0  0  0  0  0  0
   -7.3040   14.6760   -0.3320 O   0  0  0  0  0  0  0  0  0  0  0  0
   -5.4230   15.1360    1.2900 N   0  0  0  0  0  0  0  0  0  0  0  0
   -4.5080   15.0330    0.1990 C   0  0  0  0  0  0  0  0  0  0  0  0
   -3.1960   14.6430    0.4490 C   0  0  0  0  0  0  0  0  0  0  0  0
   -4.9240   15.3140   -1.1060 C   0  0  0  0  0  0  0  0  0  0  0  0
   -2.2930   14.5210   -0.6060 C   0  0  0  0  0  0  0  0  0  0  0  0
   -4.0180   15.1870   -2.1590 C   0  0  0  0  0  0  0  0  0  0  0  0
   -2.6970   14.7870   -1.9240 C   0  0  0  0  0  0  0  0  0  0  0  0
   -1.8010   14.6680   -3.1050 C   0  0  0  0  0  0  0  0  0  0  0  0
   -0.5670   14.3170   -3.1180 N   0  0  0  0  0  0  0  0  0  0  0  0
   -2.4720   14.9900   -4.2250 O   0  0  0  0  0  0  0  0  0  0  0  0
    0.2900   13.9430   -2.0100 C   0  0  0  0  0  0  0  0  0  0  0  0
    1.2130   12.9000   -2.3610 O   0  0  0  0  0  0  0  0  0  0  0  0
    0.7530   11.9440   -3.2180 C   0  0  0  0  0  0  0  0  0  0  0  0
    0.9750   12.3190   -4.7000 C   0  0  1  0  0  0  0  0  0  0  0  0
    0.2370   10.8850   -2.8650 O   0  0  0  0  0  0  0  0  0  0  0  0
    0.1740   11.4250   -5.5400 N   0  0  0  0  0  0  0  0  0  0  0  0
    0.6370   13.7640   -5.0240 C   0  0  0  0  0  0  0  0  0  0  0  0
    0.7040   11.0890   -6.7580 C   0  0  0  0  0  0  0  0  0  0  0  0
    1.6420   11.6970   -7.2080 O   0  0  0  0  0  0  0  0  0  0  0  0
    0.0940    9.9100   -7.4980 C   0  0  0  0  0  0  0  0  0  0  0  0
   -1.1910   10.2860   -8.2480 C   0  0  0  0  0  0  0  0  0  0  0  0
   -0.2650    8.7360   -6.5750 C   0  0  0  0  0  0  0  0  0  0  0  0
   -2.1600    9.1410   -7.9880 C   0  0  0  0  0  0  0  0  0  0  0  0
   -1.7790    8.6310   -6.6080 C   0  0  0  0  0  0  0  0  0  0  0  0
  1  2  1  0
  2  3  2  0
  2  4  2  0
  2  5  1  0
  5  6  1  0
  6  7  2  0
  6  8  1  0
  7  9  1  0
  8 10  2  0
  9 11  2  0
 10 11  1  0
 11 12  1  0
 12 13  2  3
 12 14  1  0
 13 15  1  0
 15 16  1  0
 16 17  1  0
 17 18  1  0
 17 19  2  0
 18 20  1  0
 18 21  1  1
 20 22  1  0
 22 23  2  0
 22 24  1  0
 24 25  1  0
 24 26  1  0
 25 27  1  0
 26 28  1  0
 27 28  1  0
M  END
