mac-x0231-mac-x0282
     RDKit          3D

 25 28  0  0  0  0  0  0  0  0999 V2000
    0.8450   11.0880   -2.7470 O   0  0  0  0  0  0  0  0  0  0  0  0
    1.1050   12.3490   -3.1400 C   0  0  0  0  0  0  0  0  0  0  0  0
    1.1190   13.4340   -2.4540 N   0  0  0  0  0  0  0  0  0  0  0  0
    1.4070   12.5590   -4.5670 C   0  0  0  0  0  0  0  0  0  0  0  0
    0.8890   13.5410   -1.0500 C   0  0  0  0  0  0  0  0  0  0  0  0
    1.0250   13.9930   -4.6920 C   0  0  0  0  0  0  0  0  0  0  0  0
   -0.3860   14.3110   -4.9270 C   0  0  0  0  0  0  0  0  0  0  0  0
    1.9460   14.8820   -4.5170 N   0  0  0  0  0  0  0  0  0  0  0  0
   -0.3740   14.0590   -0.4750 C   0  0  0  0  0  0  0  0  0  0  0  0
   -0.7420   15.6530   -4.9230 C   0  0  0  0  0  0  0  0  0  0  0  0
    1.5850   16.1870   -4.5810 N   0  0  0  0  0  0  0  0  0  0  0  0
   -1.3570   13.3310   -5.1400 C   0  0  0  0  0  0  0  0  0  0  0  0
   -1.4320   14.4440   -1.2790 C   0  0  0  0  0  0  0  0  0  0  0  0
   -0.5090   14.1420    0.9200 C   0  0  0  0  0  0  0  0  0  0  0  0
    0.3080   16.6670   -4.7000 C   0  0  0  0  0  0  0  0  0  0  0  0
   -2.0770   16.0290   -5.1270 C   0  0  0  0  0  0  0  0  0  0  0  0
   -2.6850   13.6990   -5.3460 C   0  0  0  0  0  0  0  0  0  0  0  0
   -2.5850   14.8780   -0.6360 C   0  0  0  0  0  0  0  0  0  0  0  0
   -1.5950   14.5540    1.5990 N   0  0  0  0  0  0  0  0  0  0  0  0
    0.0420   17.8620   -4.6290 O   0  0  0  0  0  0  0  0  0  0  0  0
   -3.0470   15.0470   -5.3380 C   0  0  0  0  0  0  0  0  0  0  0  0
   -3.8520   15.3330   -1.0610 C   0  0  0  0  0  0  0  0  0  0  0  0
   -2.5880   14.9000    0.7630 C   0  0  0  0  0  0  0  0  0  0  0  0
   -4.5850   15.6060    0.0630 C   0  0  0  0  0  0  0  0  0  0  0  0
   -3.8080   15.3400    1.1590 N   0  0  0  0  0  0  0  0  0  0  0  0
  1  2  1  0
  2  3  2  3
  2  4  1  0
  3  5  1  0
  4  6  1  0
  6  7  1  0
  6  8  2  0
  5  9  1  0
  7 10  2  0
  8 11  1  0
  7 12  1  0
  9 13  2  0
  9 14  1  0
 10 15  1  0
 11 15  1  0
 10 16  1  0
 12 17  2  0
 13 18  1  0
 14 19  2  0
 15 20  2  0
 16 21  2  0
 17 21  1  0
 18 22  1  0
 18 23  2  0
 19 23  1  0
 22 24  2  0
 23 25  1  0
 24 25  1  0
M  END
