mac-x0437-mac-x0397
     RDKit          3D

 28 31  0  0  0  0  0  0  0  0999 V2000
    1.7820   12.7350   -2.0120 O   0  0  0  0  0  0  0  0  0  0  0  0
    0.8520   12.3180   -2.9850 C   0  0  0  0  0  0  0  0  0  0  0  0
    0.8740   10.9100   -3.0210 O   0  0  0  0  0  0  0  0  0  0  0  0
    1.3780   12.9040   -4.3190 C   0  0  0  0  0  0  0  0  0  0  0  0
   -0.5430   12.7120   -2.5090 C   0  0  0  0  0  0  0  0  0  0  0  0
    0.3920   13.0500   -5.4830 C   0  0  0  0  0  0  0  0  0  0  0  0
   -1.3220   13.5970   -3.4700 C   0  0  0  0  0  0  0  0  0  0  0  0
   -1.5660   14.9550   -2.8700 C   0  0  0  0  0  0  0  0  0  0  0  0
   -0.4620   11.9020   -5.6960 N   0  0  0  0  0  0  0  0  0  0  0  0
   -1.6080   11.5980   -5.0130 C   0  0  0  0  0  0  0  0  0  0  0  0
   -0.2550   10.9260   -6.6240 C   0  0  0  0  0  0  0  0  0  0  0  0
   -2.7700   14.9610   -1.9820 C   0  0  0  0  0  0  0  0  0  0  0  0
   -2.1510   10.4820   -5.4420 N   0  0  0  0  0  0  0  0  0  0  0  0
   -1.3210   10.0510   -6.4400 C   0  0  0  0  0  0  0  0  0  0  0  0
    0.7360   10.7290   -7.5790 C   0  0  0  0  0  0  0  0  0  0  0  0
   -4.0260   15.0830   -2.5560 C   0  0  0  0  0  0  0  0  0  0  0  0
   -2.6250   14.8460   -0.5850 C   0  0  0  0  0  0  0  0  0  0  0  0
   -1.4090    8.9090   -7.2460 C   0  0  0  0  0  0  0  0  0  0  0  0
    0.6340    9.5860   -8.3760 C   0  0  0  0  0  0  0  0  0  0  0  0
   -3.7820   14.8630    0.2040 C   0  0  0  0  0  0  0  0  0  0  0  0
   -5.1420   15.0900   -1.7450 C   0  0  0  0  0  0  0  0  0  0  0  0
   -6.7270   15.2310   -2.3540 Cl  0  0  0  0  0  0  0  0  0  0  0  0
   -0.4240    8.6880   -8.2120 C   0  0  0  0  0  0  0  0  0  0  0  0
   -5.0470   14.9820   -0.3610 C   0  0  0  0  0  0  0  0  0  0  0  0
   -3.9530   14.7570    1.9040 S   0  0  0  0  0  0  0  0  0  0  0  0
   -5.6640   14.8810    1.7340 C   0  0  0  0  0  0  0  0  0  0  0  0
   -6.0960   14.9820    0.5240 N   0  0  0  0  0  0  0  0  0  0  0  0
   -6.5190   14.8840    2.7610 N   0  0  0  0  0  0  0  0  0  0  0  0
  2  1  1  0
  2  3  1  0
  2  4  1  0
  2  5  1  0
  4  6  1  0
  5  7  1  0
  7  8  1  0
  6  9  1  0
  9 10  1  0
  9 11  1  0
  8 12  1  0
 10 13  2  0
 11 14  2  0
 13 14  1  0
 11 15  1  0
 12 16  2  0
 12 17  1  0
 14 18  1  0
 15 19  2  0
 17 20  2  0
 16 21  1  0
 21 22  1  0
 18 23  2  0
 19 23  1  0
 20 24  1  0
 21 24  2  0
 20 25  1  0
 25 26  1  0
 24 27  1  0
 26 27  2  0
 26 28  1  0
M  END
