mac-x0360-mac-x0510
     RDKit          3D

 22 24  0  0  0  0  0  0  0  0999 V2000
   -7.7960   12.2930    2.9660 Cl  0  0  0  0  0  0  0  0  0  0  0  0
   -7.2450   12.6450    1.3720 C   0  0  0  0  0  0  0  0  0  0  0  0
   -7.5730   11.7640    0.3400 C   0  0  0  0  0  0  0  0  0  0  0  0
   -6.4850   13.7920    1.1200 C   0  0  0  0  0  0  0  0  0  0  0  0
   -6.0510   14.0510   -0.1920 C   0  0  0  0  0  0  0  0  0  0  0  0
   -7.1400   12.0320   -0.9570 C   0  0  0  0  0  0  0  0  0  0  0  0
   -7.5530   10.9390   -2.2250 Cl  0  0  0  0  0  0  0  0  0  0  0  0
   -5.0750   15.5010   -0.5710 S   0  0  0  0  0  0  0  0  0  0  0  0
   -6.3810   13.1690   -1.2360 C   0  0  0  0  0  0  0  0  0  0  0  0
   -4.0110   14.9820   -1.6850 N   0  0  0  0  0  0  0  0  0  0  0  0
   -4.3680   15.9120    0.6240 O   0  0  0  0  0  0  0  0  0  0  0  0
   -6.0380   16.3800   -1.1760 O   0  0  0  0  0  0  0  0  0  0  0  0
   -3.1360   14.0670   -1.4060 C   0  0  0  0  0  0  0  0  0  0  0  0
   -2.1570   14.3610   -0.4120 C   0  0  0  0  0  0  0  0  0  0  0  0
   -3.6130   12.8600   -0.9800 N   0  0  0  0  0  0  0  0  0  0  0  0
   -4.1830   12.7790    0.2830 C   0  0  0  0  0  0  0  0  0  0  0  0
   -2.4230   14.1560    0.9030 C   0  0  0  0  0  0  0  0  0  0  0  0
   -0.8740   14.8370   -0.4340 N   0  0  0  0  0  0  0  0  0  0  0  0
   -5.0930   12.0040    0.5310 O   0  0  0  0  0  0  0  0  0  0  0  0
   -3.6440   13.6500    1.2080 N   0  0  0  0  0  0  0  0  0  0  0  0
   -1.3950   14.4880    1.7180 N   0  0  0  0  0  0  0  0  0  0  0  0
   -0.4580   14.9010    0.8780 C   0  0  0  0  0  0  0  0  0  0  0  0
  1  2  1  0
  2  3  2  0
  2  4  1  0
  4  5  2  0
  3  6  1  0
  6  7  1  0
  5  8  1  0
  5  9  1  0
  6  9  2  0
  8 10  1  0
  8 11  2  0
  8 12  2  0
 10 13  2  3
 13 14  1  0
 13 15  1  0
 15 16  1  0
 14 17  2  0
 14 18  1  0
 16 19  2  0
 16 20  1  0
 17 20  1  0
 17 21  1  0
 18 22  1  0
 21 22  2  0
M  END
