mac-x0373-mac-x0387
     RDKit          3D

 22 24  0  0  0  0  0  0  0  0999 V2000
    0.3380   13.2340   -1.9170 O   0  0  0  0  0  0  0  0  0  0  0  0
   -0.0980   14.4750   -2.2440 C   0  0  0  0  0  0  0  0  0  0  0  0
    0.6640   15.4060   -2.0660 O   0  0  0  0  0  0  0  0  0  0  0  0
   -1.5140   14.4620   -2.8260 C   0  0  1  0  0  0  0  0  0  0  0  0
   -1.7200   13.2240   -3.7040 C   0  0  0  0  0  0  0  0  0  0  0  0
   -2.6920   14.5750   -1.7840 C   0  0  2  0  0  0  0  0  0  0  0  0
   -1.0890   13.0130   -4.9370 C   0  0  0  0  0  0  0  0  0  0  0  0
   -2.5990   12.2260   -3.2330 C   0  0  0  0  0  0  0  0  0  0  0  0
   -3.7220   15.6300   -1.9770 C   0  0  0  0  0  0  0  0  0  0  0  0
   -2.5210   14.1750   -0.2770 C   0  0  2  0  0  0  0  0  0  0  0  0
   -1.3320   11.8450   -5.6720 C   0  0  0  0  0  0  0  0  0  0  0  0
   -2.8400   11.0640   -3.9660 C   0  0  0  0  0  0  0  0  0  0  0  0
   -4.8400   15.5280   -1.2480 C   0  0  0  0  0  0  0  0  0  0  0  0
   -3.8940   13.6910    0.1140 C   0  0  0  0  0  0  0  0  0  0  0  0
   -2.4370   15.2070    0.9290 C   0  0  2  0  0  0  0  0  0  0  0  0
   -1.2980   13.3350   -0.3140 C   0  0  0  0  0  0  0  0  0  0  0  0
   -3.4800   16.2140    1.0410 N   0  0  0  0  0  0  0  0  0  0  0  0
   -2.2060   10.8750   -5.1850 C   0  0  0  0  0  0  0  0  0  0  0  0
   -4.9730   14.3800   -0.3540 C   0  0  0  0  0  0  0  0  0  0  0  0
   -0.1900   13.6910    0.3230 C   0  0  0  0  0  0  0  0  0  0  0  0
   -1.1600   15.8050    1.1500 N   0  0  0  0  0  0  0  0  0  0  0  0
   -0.0470   14.8900    1.1530 C   0  0  0  0  0  0  0  0  0  0  0  0
  1  2  1  0
  2  3  2  0
  4  2  1  1
  4  5  1  0
  4  6  1  0
  5  7  2  0
  5  8  1  0
  6  9  1  1
  6 10  1  0
  7 11  1  0
  8 12  2  0
  9 13  2  0
 10 14  1  1
 10 15  1  0
 10 16  1  0
 15 17  1  6
 11 18  2  0
 12 18  1  0
 13 19  1  0
 14 19  2  0
 16 20  2  0
 15 21  1  0
 20 22  1  0
 21 22  1  0
M  END
