mac-x0357-mac-x0263
     RDKit          3D

 27 29  0  0  0  0  0  0  0  0999 V2000
    2.5190   13.0970   -4.5620 C   0  0  0  0  0  0  0  0  0  0  0  0
    1.1470   12.5390   -4.8090 C   0  0  0  0  0  0  0  0  0  0  0  0
    0.8550   11.9130   -6.0280 C   0  0  0  0  0  0  0  0  0  0  0  0
    0.1220   12.6100   -3.8460 C   0  0  0  0  0  0  0  0  0  0  0  0
    1.8410   11.8260   -6.9580 O   0  0  0  0  0  0  0  0  0  0  0  0
    0.3720   13.2420   -2.5370 C   0  0  0  0  0  0  0  0  0  0  0  0
   -1.1500   12.0740   -4.1110 C   0  0  0  0  0  0  0  0  0  0  0  0
   -0.4000   11.3800   -6.3030 C   0  0  0  0  0  0  0  0  0  0  0  0
   -0.1550   14.1660   -1.8170 N   0  0  0  0  0  0  0  0  0  0  0  0
    1.4440   12.6680   -1.9850 O   0  0  0  0  0  0  0  0  0  0  0  0
   -1.4060   11.4580   -5.3420 C   0  0  0  0  0  0  0  0  0  0  0  0
   -1.3320   14.9780   -2.1180 C   0  0  0  0  0  0  0  0  0  0  0  0
   -1.9080   15.5310   -0.7970 C   0  0  0  0  0  0  0  0  0  0  0  0
   -3.4080   15.3930   -0.7110 C   0  0  0  0  0  0  0  0  0  0  0  0
   -4.1660   15.6110   -1.8640 C   0  0  0  0  0  0  0  0  0  0  0  0
   -4.0530   15.0420    0.4970 C   0  0  0  0  0  0  0  0  0  0  0  0
   -5.4540   14.9150    0.4990 C   0  0  0  0  0  0  0  0  0  0  0  0
   -5.5580   15.4920   -1.8700 C   0  0  0  0  0  0  0  0  0  0  0  0
   -6.1590   15.1390   -0.6750 C   0  0  0  0  0  0  0  0  0  0  0  0
   -6.3190   14.5860    1.5140 N   0  0  0  0  0  0  0  0  0  0  0  0
   -7.5250   14.6060    0.9890 C   0  0  0  0  0  0  0  0  0  0  0  0
   -7.4680   14.9370   -0.3400 N   0  0  0  0  0  0  0  0  0  0  0  0
   -8.8150   14.3300    1.6820 C   0  0  0  0  0  0  0  0  0  0  0  0
   -9.5520   15.6340    1.9610 C   0  0  0  0  0  0  0  0  0  0  0  0
  -10.7900   15.4460    2.7890 C   0  0  0  0  0  0  0  0  0  0  0  0
  -11.4770   14.3280    2.4890 O   0  0  0  0  0  0  0  0  0  0  0  0
  -11.1880   16.2000    3.6610 O   0  0  0  0  0  0  0  0  0  0  0  0
  1  2  1  0
  2  3  2  0
  2  4  1  0
  3  5  1  0
  4  6  1  0
  4  7  2  0
  3  8  1  0
  6  9  2  3
  6 10  1  0
  7 11  1  0
  8 11  2  0
  9 12  1  0
 12 13  1  0
 13 14  1  0
 14 15  2  0
 14 16  1  0
 16 17  2  0
 15 18  1  0
 17 19  1  0
 18 19  2  0
 17 20  1  0
 20 21  2  0
 19 22  1  0
 21 22  1  0
 21 23  1  0
 23 24  1  0
 24 25  1  0
 25 26  1  0
 25 27  2  0
M  END
