mac-x0381-diamond-x0895_0_A
     RDKit          3D

 22 24  0  0  0  0  0  0  0  0999 V2000
   -7.9760   13.3500    4.2090 N   0  0  0  0  0  0  0  0  0  0  0  0
   -8.0380   14.5030    3.4800 C   0  0  0  0  0  0  0  0  0  0  0  0
   -6.9310   14.9530    2.9960 N   0  0  0  0  0  0  0  0  0  0  0  0
   -9.3740   15.1050    3.2560 C   0  0  0  0  0  0  0  0  0  0  0  0
   -5.6860   14.2160    3.1920 C   0  0  0  0  0  0  0  0  0  0  0  0
   -9.5760   15.7470    2.0360 C   0  0  0  0  0  0  0  0  0  0  0  0
  -10.3920   15.0220    4.2070 C   0  0  0  0  0  0  0  0  0  0  0  0
   -4.4280   15.0860    3.0630 C   0  0  0  0  0  0  0  0  0  0  0  0
  -10.8160   16.3080    1.7300 C   0  0  0  0  0  0  0  0  0  0  0  0
  -11.6390   15.5860    3.9090 C   0  0  0  0  0  0  0  0  0  0  0  0
  -11.8690   16.2260    2.6730 C   0  0  0  0  0  0  0  0  0  0  0  0
  -11.0360   16.9470    0.4980 C   0  0  0  0  0  0  0  0  0  0  0  0
   -4.0190   15.5650    1.6760 C   0  0  2  0  0  0  0  0  0  0  0  0
  -13.1150   16.7800    2.3540 C   0  0  0  0  0  0  0  0  0  0  0  0
  -12.2830   17.4860    0.1960 C   0  0  0  0  0  0  0  0  0  0  0  0
   -4.7900   15.0880    0.5610 N   0  0  0  0  0  0  0  0  0  0  0  0
   -2.6750   14.9740    1.2270 C   0  0  0  0  0  0  0  0  0  0  0  0
   -1.7320   14.5980    1.9160 O   0  0  0  0  0  0  0  0  0  0  0  0
  -13.3240   17.4040    1.1210 C   0  0  0  0  0  0  0  0  0  0  0  0
   -2.7080   14.9280   -0.1290 N   0  0  0  0  0  0  0  0  0  0  0  0
   -3.9850   15.0660   -0.5550 C   0  0  0  0  0  0  0  0  0  0  0  0
   -4.3570   15.1610   -1.7060 O   0  0  0  0  0  0  0  0  0  0  0  0
  1  2  1  0
  2  3  2  3
  2  4  1  0
  3  5  1  0
  4  6  2  0
  4  7  1  0
  5  8  1  0
  6  9  1  0
  7 10  2  0
  9 11  2  0
 10 11  1  0
  9 12  1  0
 13  8  1  1
 11 14  1  0
 12 15  2  0
 13 16  1  0
 13 17  1  0
 17 18  2  0
 14 19  2  0
 15 19  1  0
 17 20  1  0
 16 21  1  0
 20 21  1  0
 21 22  2  0
M  END
