mac-x0263-mac-x0590
     RDKit          3D

 26 29  0  0  0  0  0  0  0  0999 V2000
  -11.3230   14.2020    2.1210 O   0  0  0  0  0  0  0  0  0  0  0  0
  -10.6710   15.2750    2.6000 C   0  0  0  0  0  0  0  0  0  0  0  0
  -11.2130   15.9820    3.4360 O   0  0  0  0  0  0  0  0  0  0  0  0
   -9.2970   15.4960    2.0020 C   0  0  0  0  0  0  0  0  0  0  0  0
   -8.7620   14.3180    1.1790 C   0  0  0  0  0  0  0  0  0  0  0  0
   -7.3670   14.5360    0.6580 C   0  0  0  0  0  0  0  0  0  0  0  0
   -7.0340   14.6430   -0.6850 N   0  0  0  0  0  0  0  0  0  0  0  0
   -6.2820   14.6510    1.3920 N   0  0  0  0  0  0  0  0  0  0  0  0
   -5.6670   14.8300   -0.7670 C   0  0  0  0  0  0  0  0  0  0  0  0
   -5.2380   14.8340    0.5250 C   0  0  0  0  0  0  0  0  0  0  0  0
   -4.8050   14.9910   -1.9880 C   0  0  0  0  0  0  0  0  0  0  0  0
   -3.8280   15.0070    0.9450 C   0  0  0  0  0  0  0  0  0  0  0  0
   -3.3180   15.4710   -1.6720 C   0  0  1  0  0  0  0  0  0  0  0  0
   -2.7680   15.0570   -0.2200 C   0  0  1  0  0  0  0  0  0  0  0  0
   -2.2400   15.2230   -2.8550 C   0  0  0  0  0  0  0  0  0  0  0  0
   -1.6480   15.9350    0.2410 N   0  0  0  0  0  0  0  0  0  0  0  0
   -1.9900   13.7420   -0.3320 C   0  0  0  0  0  0  0  0  0  0  0  0
   -1.8370   13.7730   -3.3090 C   0  0  0  0  0  0  0  0  0  0  0  0
   -0.5710   14.1310   -0.4240 N   0  0  0  0  0  0  0  0  0  0  0  0
   -0.5390   15.0950    0.6320 C   0  0  0  0  0  0  0  0  0  0  0  0
   -0.7470   13.7820   -4.4350 C   0  0  0  0  0  0  0  0  0  0  0  0
    0.0920   12.4730   -4.6200 C   0  0  2  0  0  0  0  0  0  0  0  0
    0.6820   11.9660   -3.3020 C   0  0  0  0  0  0  0  0  0  0  0  0
    1.3460   12.6770   -5.4720 C   0  0  0  0  0  0  0  0  0  0  0  0
    2.4320   12.9900   -4.4630 C   0  0  0  0  0  0  0  0  0  0  0  0
    2.0860   12.2900   -3.2680 O   0  0  0  0  0  0  0  0  0  0  0  0
  1  2  1  0
  2  3  2  0
  2  4  1  0
  4  5  1  0
  5  6  1  0
  6  7  1  0
  6  8  2  0
  7  9  1  0
  8 10  1  0
  9 10  2  0
  9 11  1  0
 10 12  1  0
 11 13  1  0
 14 12  1  1
 13 14  1  0
 13 15  1  6
 14 16  1  0
 14 17  1  0
 15 18  1  0
 17 19  1  0
 16 20  1  0
 19 20  1  0
 18 21  1  0
 22 21  1  1
 22 23  1  0
 22 24  1  0
 24 25  1  0
 23 26  1  0
 25 26  1  0
M  END
