mac-x0584-diamond-x0837_0_A
     RDKit          3D

 20 23  0  0  0  0  0  0  0  0999 V2000
   -5.9810   14.9460    0.4330 O   0  0  0  0  0  0  0  0  0  0  0  0
   -4.7410   14.9580    0.3700 C   0  0  0  0  0  0  0  0  0  0  0  0
   -3.8440   15.0400    1.4140 N   0  0  0  0  0  0  0  0  0  0  0  0
   -3.9620   14.8330   -0.8940 C   0  0  0  0  0  0  0  0  0  0  0  0
   -4.8280   14.6740   -2.6720 I   0  0  0  0  0  0  0  0  0  0  0  0
   -2.6860   14.9510    0.8540 C   0  0  0  0  0  0  0  0  0  0  0  0
   -2.6790   14.8360   -0.5810 C   0  0  0  0  0  0  0  0  0  0  0  0
   -1.5020   14.9560    1.5080 N   0  0  0  0  0  0  0  0  0  0  0  0
   -1.3890   14.7530   -1.2740 C   0  0  0  0  0  0  0  0  0  0  0  0
   -1.2860   14.6600   -2.6620 N   0  0  0  0  0  0  0  0  0  0  0  0
   -0.3070   14.7740   -0.5460 N   0  0  0  0  0  0  0  0  0  0  0  0
   -0.4110   14.8750    0.8190 C   0  0  0  0  0  0  0  0  0  0  0  0
    0.0170   14.6530   -3.3470 C   0  0  1  0  0  0  0  0  0  0  0  0
   -2.3400   15.1050   -3.5860 C   0  0  0  0  0  0  0  0  0  0  0  0
    0.6060   13.2830   -3.0660 C   0  0  0  0  0  0  0  0  0  0  0  0
   -0.3300   14.8520   -4.8350 C   0  0  0  0  0  0  0  0  0  0  0  0
   -1.6150   15.6610   -4.7960 C   0  0  0  0  0  0  0  0  0  0  0  0
    1.3050   12.5240   -4.2250 C   0  0  0  0  0  0  0  0  0  0  0  0
   -0.4600   12.1550   -3.0480 C   0  0  0  0  0  0  0  0  0  0  0  0
    0.5260   11.2660   -3.7820 C   0  0  0  0  0  0  0  0  0  0  0  0
  1  2  2  0
  2  3  1  0
  2  4  1  0
  4  5  1  0
  3  6  2  0
  4  7  2  0
  6  7  1  0
  6  8  1  0
  7  9  1  0
  9 10  1  0
  9 11  2  0
  8 12  2  0
 11 12  1  0
 10 13  1  0
 10 14  1  0
 13 15  1  6
 13 16  1  0
 14 17  1  0
 16 17  1  0
 15 18  1  0
 15 19  1  0
 18 20  1  0
 19 20  1  0
M  END
