mac-x0527-mac-x0328
     RDKit          3D

 18 19  0  0  0  0  0  0  0  0999 V2000
   -3.6090   15.3550   -3.7130 O   0  0  0  0  0  0  0  0  0  0  0  0
   -3.0970   14.9540   -2.6720 C   0  0  0  0  0  0  0  0  0  0  0  0
   -1.6060   14.7500   -2.6660 C   0  0  0  0  0  0  0  0  0  0  0  0
   -3.8520   14.6330   -1.3860 C   0  0  2  0  0  0  0  0  0  0  0  0
   -0.9680   14.7200   -4.0310 C   0  0  0  0  0  0  0  0  0  0  0  0
   -1.0470   14.6340   -1.5850 O   0  0  0  0  0  0  0  0  0  0  0  0
   -5.2460   15.3000   -1.3210 C   0  0  0  0  0  0  0  0  0  0  0  0
   -3.0670   15.0240   -0.1640 N   0  0  0  0  0  0  0  0  0  0  0  0
   -0.9040   13.3450   -4.6540 C   0  0  0  0  0  0  0  0  0  0  0  0
   -5.8660   14.9210   -0.0510 N   0  0  0  0  0  0  0  0  0  0  0  0
   -3.7640   15.0100    1.0470 C   0  0  0  0  0  0  0  0  0  0  0  0
   -7.2540   14.9250   -0.0160 O   0  0  0  0  0  0  0  0  0  0  0  0
   -1.8380   12.3530   -4.3100 C   0  0  0  0  0  0  0  0  0  0  0  0
    0.0960   13.0400   -5.5910 C   0  0  0  0  0  0  0  0  0  0  0  0
   -5.1050   14.9590    1.1020 C   0  0  0  0  0  0  0  0  0  0  0  0
   -1.7720   11.0850   -4.8910 C   0  0  0  0  0  0  0  0  0  0  0  0
    0.1600   11.7730   -6.1690 C   0  0  0  0  0  0  0  0  0  0  0  0
   -0.7740   10.7960   -5.8200 C   0  0  0  0  0  0  0  0  0  0  0  0
  1  2  2  0
  2  3  1  0
  4  2  1  6
  3  5  1  0
  3  6  2  0
  4  7  1  0
  4  8  1  0
  5  9  1  0
  7 10  1  0
  8 11  1  0
 10 12  1  0
  9 13  2  0
  9 14  1  0
 10 15  1  0
 11 15  2  0
 13 16  1  0
 14 17  2  0
 16 18  2  0
 17 18  1  0
M  END
