mac-x0282-mac-x0451
     RDKit          3D

 14 16  0  0  0  0  0  0  0  0999 V2000
   -3.6180   15.7230   -1.9570 F   0  0  0  0  0  0  0  0  0  0  0  0
   -3.5920   14.6740   -1.0960 C   0  0  2  0  0  0  0  0  0  0  0  0
   -4.3820   14.8150    0.2600 C   0  0  1  0  0  0  0  0  0  0  0  0
   -2.2330   14.5560   -0.4870 C   0  0  0  0  0  0  0  0  0  0  0  0
   -2.2880   15.0400    0.8180 C   0  0  0  0  0  0  0  0  0  0  0  0
   -3.5550   15.5230    1.1080 N   0  0  0  0  0  0  0  0  0  0  0  0
   -1.0510   14.0740   -0.9940 C   0  0  0  0  0  0  0  0  0  0  0  0
   -5.7810   15.1010    0.4220 N   0  0  0  0  0  0  0  0  0  0  0  0
   -4.6970   13.3750    1.2490 S   0  0  0  0  0  0  0  0  0  0  0  0
    0.0370   14.0920   -0.1350 C   0  0  0  0  0  0  0  0  0  0  0  0
   -1.2880   15.0470    1.6470 N   0  0  0  0  0  0  0  0  0  0  0  0
   -5.7070   14.7420    1.8140 C   0  0  2  0  0  0  0  0  0  0  0  0
   -6.9500   14.3250    2.3860 N   0  0  0  0  0  0  0  0  0  0  0  0
   -0.1480   14.5770    1.1590 C   0  0  0  0  0  0  0  0  0  0  0  0
  2  1  1  6
  2  3  1  0
  2  4  1  0
  4  5  2  0
  3  6  1  1
  5  6  1  0
  4  7  1  0
  3  8  1  0
  3  9  1  0
  7 10  2  0
  5 11  1  0
  8 12  1  0
  9 12  1  0
 12 13  1  6
 10 14  1  0
 11 14  2  0
M  END
