mac-x0223-mac-x0433
     RDKit          3D

 25 26  0  0  0  0  0  0  0  0999 V2000
    1.1160   18.3810   -5.5440 C   0  0  0  0  0  0  0  0  0  0  0  0
   -0.1920   18.1050   -5.0680 O   0  0  0  0  0  0  0  0  0  0  0  0
   -0.3950   16.7590   -4.9240 C   0  0  0  0  0  0  0  0  0  0  0  0
   -1.6800   16.2250   -5.1450 C   0  0  0  0  0  0  0  0  0  0  0  0
    0.6410   15.8770   -4.5680 C   0  0  0  0  0  0  0  0  0  0  0  0
   -2.7470   16.9510   -5.5040 O   0  0  0  0  0  0  0  0  0  0  0  0
   -1.8910   14.8720   -5.0030 C   0  0  0  0  0  0  0  0  0  0  0  0
    0.3830   14.4980   -4.4380 C   0  0  0  0  0  0  0  0  0  0  0  0
    1.4150   13.4840   -4.0650 C   0  0  0  0  0  0  0  0  0  0  0  0
   -3.7440   15.9570   -5.8070 C   0  0  0  0  0  0  0  0  0  0  0  0
   -0.8870   14.0220   -4.6570 C   0  0  0  0  0  0  0  0  0  0  0  0
    0.9100   12.5650   -2.9670 C   0  0  0  0  0  0  0  0  0  0  0  0
   -4.0470   15.1100   -4.5400 C   0  0  0  0  0  0  0  0  0  0  0  0
    0.3090   11.5080   -3.0930 O   0  0  0  0  0  0  0  0  0  0  0  0
    1.2040   13.0770   -1.7510 O   0  0  0  0  0  0  0  0  0  0  0  0
   -5.4470   14.5020   -4.4080 C   0  0  0  0  0  0  0  0  0  0  0  0
   -6.2710   15.0420   -3.3270 N   0  0  0  0  0  0  0  0  0  0  0  0
   -5.8910   15.0530   -1.9810 C   0  0  0  0  0  0  0  0  0  0  0  0
   -4.6360   15.3320   -1.5700 N   0  0  0  0  0  0  0  0  0  0  0  0
   -6.8880   14.7570   -1.1400 N   0  0  0  0  0  0  0  0  0  0  0  0
   -4.3940   15.3000   -0.2380 C   0  0  0  0  0  0  0  0  0  0  0  0
   -6.6240   14.7310    0.1770 C   0  0  0  0  0  0  0  0  0  0  0  0
   -3.0040   15.6060    0.2320 C   0  0  0  0  0  0  0  0  0  0  0  0
   -7.7560   14.3990    1.0950 C   0  0  0  0  0  0  0  0  0  0  0  0
   -5.3680   14.9990    0.6820 C   0  0  0  0  0  0  0  0  0  0  0  0
  1  2  1  0
  2  3  1  0
  3  4  2  0
  3  5  1  0
  4  6  1  0
  4  7  1  0
  5  8  2  0
  8  9  1  0
  6 10  1  0
  7 11  2  0
  8 11  1  0
  9 12  1  0
 10 13  1  0
 12 14  2  0
 12 15  1  0
 13 16  1  0
 16 17  1  0
 17 18  1  0
 18 19  2  0
 18 20  1  0
 19 21  1  0
 20 22  2  0
 21 23  1  0
 22 24  1  0
 21 25  2  0
 22 25  1  0
M  END
