mac-x0567-mac-x0439
     RDKit          3D

 25 28  0  0  0  0  0  0  0  0999 V2000
    0.1620   13.7240    0.0420 N   0  0  0  0  0  0  0  0  0  0  0  0
   -1.0390   14.2290    0.3990 C   0  0  0  0  0  0  0  0  0  0  0  0
   -1.3290   14.5710    1.6780 N   0  0  0  0  0  0  0  0  0  0  0  0
   -2.1880   14.5190   -0.2890 C   0  0  0  0  0  0  0  0  0  0  0  0
   -2.5720   15.0580    1.8600 N   0  0  0  0  0  0  0  0  0  0  0  0
   -3.1320   15.0450    0.6570 C   0  0  0  0  0  0  0  0  0  0  0  0
   -2.4020   14.3380   -1.6450 C   0  0  0  0  0  0  0  0  0  0  0  0
   -4.4110   15.4470    0.2630 C   0  0  0  0  0  0  0  0  0  0  0  0
   -3.7040   14.7350   -2.0310 C   0  0  0  0  0  0  0  0  0  0  0  0
   -4.1160   14.5800   -3.4720 C   0  0  0  0  0  0  0  0  0  0  0  0
   -4.6640   15.2720   -1.1100 C   0  0  0  0  0  0  0  0  0  0  0  0
   -2.9650   14.5040   -4.4680 C   0  0  0  0  0  0  0  0  0  0  0  0
   -2.8920   15.7190   -5.3850 C   0  0  0  0  0  0  0  0  0  0  0  0
   -1.6290   16.5270   -5.4340 C   0  0  0  0  0  0  0  0  0  0  0  0
   -0.3230   15.8190   -5.1660 C   0  0  2  0  0  0  0  0  0  0  0  0
   -1.5810   17.8390   -5.7380 C   0  0  0  0  0  0  0  0  0  0  0  0
   -0.0750   14.7270   -4.1920 C   0  0  0  0  0  0  0  0  0  0  0  0
    0.7420   16.7540   -4.7000 C   0  0  0  0  0  0  0  0  0  0  0  0
   -0.3280   18.5650   -5.8110 C   0  0  0  0  0  0  0  0  0  0  0  0
    1.0120   15.0270   -3.4760 C   0  0  0  0  0  0  0  0  0  0  0  0
    1.5100   16.2700   -3.7870 N   0  0  0  0  0  0  0  0  0  0  0  0
    0.8300   18.0860   -5.3250 C   0  0  0  0  0  0  0  0  0  0  0  0
    1.6190   14.1260   -2.4420 C   0  0  0  0  0  0  0  0  0  0  0  0
    2.7270   14.6240   -1.8300 O   0  0  0  0  0  0  0  0  0  0  0  0
    1.2090   13.0210   -2.1370 O   0  0  0  0  0  0  0  0  0  0  0  0
  1  2  1  0
  2  3  1  0
  2  4  2  0
  3  5  1  0
  4  6  1  0
  5  6  2  0
  4  7  1  0
  6  8  1  0
  7  9  2  0
  9 10  1  0
  8 11  2  0
  9 11  1  0
 10 12  1  0
 12 13  1  0
 13 14  1  0
 14 15  1  0
 14 16  2  0
 15 17  1  1
 15 18  1  0
 16 19  1  0
 17 20  2  0
 18 21  2  0
 20 21  1  0
 18 22  1  0
 19 22  2  0
 20 23  1  0
 23 24  1  0
 23 25  2  0
M  END
