mac-x0223-mac-x0346
     RDKit          3D

 26 27  0  0  0  0  0  0  0  0999 V2000
    1.0970   18.3540   -5.4580 C   0  0  0  0  0  0  0  0  0  0  0  0
   -0.1770   18.0450   -4.9020 O   0  0  0  0  0  0  0  0  0  0  0  0
   -0.3760   16.6980   -4.7850 C   0  0  0  0  0  0  0  0  0  0  0  0
   -1.6750   16.1960   -4.6320 C   0  0  0  0  0  0  0  0  0  0  0  0
    0.6600   15.7500   -4.7910 C   0  0  0  0  0  0  0  0  0  0  0  0
   -2.8400   16.8260   -4.5300 O   0  0  0  0  0  0  0  0  0  0  0  0
   -1.9430   14.8620   -4.5230 C   0  0  0  0  0  0  0  0  0  0  0  0
    0.3600   14.3770   -4.6510 C   0  0  0  0  0  0  0  0  0  0  0  0
    1.3610   13.2750   -4.5960 C   0  0  0  0  0  0  0  0  0  0  0  0
   -3.2320   15.9210   -3.4300 C   0  0  0  0  0  0  0  0  0  0  0  0
   -0.9450   13.9590   -4.5310 C   0  0  0  0  0  0  0  0  0  0  0  0
    1.0300   12.3990   -3.3890 C   0  0  0  0  0  0  0  0  0  0  0  0
   -4.2160   14.8400   -3.7930 C   0  0  0  0  0  0  0  0  0  0  0  0
    0.4110   11.3470   -3.3880 O   0  0  0  0  0  0  0  0  0  0  0  0
    1.4880   12.9300   -2.2270 O   0  0  0  0  0  0  0  0  0  0  0  0
   -5.0200   14.7260   -2.6170 O   0  0  0  0  0  0  0  0  0  0  0  0
   -4.4770   14.8770   -1.3450 C   0  0  0  0  0  0  0  0  0  0  0  0
   -5.4270   14.9800   -0.3360 C   0  0  0  0  0  0  0  0  0  0  0  0
   -3.1150   14.9260   -0.9930 C   0  0  0  0  0  0  0  0  0  0  0  0
   -6.8680   14.9280   -0.6820 C   0  0  0  0  0  0  0  0  0  0  0  0
   -2.7340   15.0730    0.3550 C   0  0  0  0  0  0  0  0  0  0  0  0
   -5.0440   15.1260    1.0070 C   0  0  0  0  0  0  0  0  0  0  0  0
   -7.8430   14.9010    0.2870 N   0  0  0  0  0  0  0  0  0  0  0  0
   -7.1840   14.9030   -1.8660 O   0  0  0  0  0  0  0  0  0  0  0  0
   -3.6990   15.1720    1.3460 C   0  0  0  0  0  0  0  0  0  0  0  0
   -7.6820   14.0290    1.3830 O   0  0  0  0  0  0  0  0  0  0  0  0
  1  2  1  0
  2  3  1  0
  3  4  2  0
  3  5  1  0
  4  6  1  0
  4  7  1  0
  5  8  2  0
  8  9  1  0
  6 10  1  0
  7 11  2  0
  8 11  1  0
  9 12  1  0
 10 13  1  0
 12 14  2  0
 12 15  1  0
 13 16  1  0
 16 17  1  0
 17 18  2  0
 17 19  1  0
 18 20  1  0
 19 21  2  0
 18 22  1  0
 20 23  1  0
 20 24  2  0
 21 25  1  0
 22 25  2  0
 23 26  1  0
M  END
