mac-x0437-diamond-x0290_0_A
     RDKit          3D

 29 31  0  0  0  0  0  0  0  0999 V2000
    1.7410   12.7180   -2.1220 O   0  0  0  0  0  0  0  0  0  0  0  0
    1.2760   12.1700   -3.2500 C   0  0  0  0  0  0  0  0  0  0  0  0
    0.6030   11.1550   -3.2010 O   0  0  0  0  0  0  0  0  0  0  0  0
    1.6680   12.9290   -4.4890 C   0  0  0  0  0  0  0  0  0  0  0  0
    0.4750   13.2680   -5.3860 C   0  0  2  0  0  0  0  0  0  0  0  0
   -0.2070   14.5610   -4.8640 C   0  0  0  0  0  0  0  0  0  0  0  0
   -0.4210   12.1150   -5.5880 N   0  0  0  0  0  0  0  0  0  0  0  0
   -0.0690   14.8100   -3.3410 C   0  0  0  0  0  0  0  0  0  0  0  0
   -1.5820   11.8330   -4.9140 C   0  0  0  0  0  0  0  0  0  0  0  0
   -0.2300   11.1070   -6.5100 C   0  0  0  0  0  0  0  0  0  0  0  0
   -1.4090   14.5830   -2.6310 C   0  0  0  0  0  0  0  0  0  0  0  0
   -2.1420   10.7170   -5.3380 N   0  0  0  0  0  0  0  0  0  0  0  0
   -1.3170   10.2520   -6.3260 C   0  0  0  0  0  0  0  0  0  0  0  0
    0.7590   10.8600   -7.4630 C   0  0  0  0  0  0  0  0  0  0  0  0
   -1.4290    9.0980   -7.1180 C   0  0  0  0  0  0  0  0  0  0  0  0
    0.6340    9.7060   -8.2440 C   0  0  0  0  0  0  0  0  0  0  0  0
   -1.4460   14.5940   -1.1170 C   0  0  0  0  0  0  0  0  0  0  0  0
   -0.4440    8.8350   -8.0770 C   0  0  0  0  0  0  0  0  0  0  0  0
   -0.3280   14.5470   -0.2760 C   0  0  0  0  0  0  0  0  0  0  0  0
   -2.7080   14.6520   -0.5310 C   0  0  0  0  0  0  0  0  0  0  0  0
   -0.5520   14.5530    1.0960 C   0  0  0  0  0  0  0  0  0  0  0  0
   -2.8490   14.6560    0.8290 C   0  0  0  0  0  0  0  0  0  0  0  0
   -4.0880   14.7100    1.4480 N   0  0  0  0  0  0  0  0  0  0  0  0
   -1.7840   14.6000    1.6650 N   0  0  0  0  0  0  0  0  0  0  0  0
   -5.3420   14.4220    1.0240 C   0  0  0  0  0  0  0  0  0  0  0  0
   -5.5320   14.3850   -0.2020 O   0  0  0  0  0  0  0  0  0  0  0  0
   -6.5090   14.1370    1.9580 C   0  0  0  0  0  0  0  0  0  0  0  0
   -7.7430   13.7320    1.2410 N   0  0  0  0  0  0  0  0  0  0  0  0
   -8.5030   14.8780    0.7450 C   0  0  0  0  0  0  0  0  0  0  0  0
  1  2  1  0
  2  3  2  0
  2  4  1  0
  5  4  1  1
  5  6  1  0
  5  7  1  0
  6  8  1  0
  7  9  1  0
  7 10  1  0
  8 11  1  0
  9 12  2  0
 10 13  2  0
 12 13  1  0
 10 14  1  0
 13 15  1  0
 14 16  2  0
 11 17  1  0
 15 18  2  0
 16 18  1  0
 17 19  2  0
 17 20  1  0
 19 21  1  0
 20 22  2  0
 22 23  1  0
 21 24  2  0
 22 24  1  0
 23 25  1  0
 25 26  2  0
 25 27  1  0
 27 28  1  0
 28 29  1  0
M  END
