mac-x0271-diamond-x0628_0_A
     RDKit          3D

 26 28  0  0  0  0  0  0  0  0999 V2000
   -4.0610   15.0300   -3.4950 O   0  0  0  0  0  0  0  0  0  0  0  0
   -4.4930   14.9000   -2.2110 C   0  0  0  0  0  0  0  0  0  0  0  0
   -3.6480   14.4670   -1.1870 C   0  0  0  0  0  0  0  0  0  0  0  0
   -5.8300   15.2200   -1.9800 C   0  0  0  0  0  0  0  0  0  0  0  0
   -2.1910   14.0930   -1.4760 C   0  0  0  0  0  0  0  0  0  0  0  0
   -6.3450   15.1100   -0.7000 C   0  0  0  0  0  0  0  0  0  0  0  0
   -4.1970   14.3780    0.1250 C   0  0  0  0  0  0  0  0  0  0  0  0
   -2.0280   12.7650   -2.3130 C   0  0  0  0  0  0  0  0  0  0  0  0
   -5.5510   14.7010    0.3630 C   0  0  0  0  0  0  0  0  0  0  0  0
   -7.7110   15.4210   -0.5040 O   0  0  0  0  0  0  0  0  0  0  0  0
   -2.3220   12.8830   -3.8370 C   0  0  0  0  0  0  0  0  0  0  0  0
   -6.1680   14.6160    1.6780 C   0  0  0  0  0  0  0  0  0  0  0  0
   -8.3680   14.9860    0.6440 C   0  0  0  0  0  0  0  0  0  0  0  0
   -9.5850   14.8260    0.7060 O   0  0  0  0  0  0  0  0  0  0  0  0
   -7.5000   14.7430    1.8080 C   0  0  0  0  0  0  0  0  0  0  0  0
   -1.5920   11.9480   -4.7990 C   0  0  0  0  0  0  0  0  0  0  0  0
   -2.0350   10.7830   -5.2750 N   0  0  0  0  0  0  0  0  0  0  0  0
   -0.3450   12.1650   -5.3550 N   0  0  0  0  0  0  0  0  0  0  0  0
    0.5560   13.2860   -5.1640 C   0  0  0  0  0  0  0  0  0  0  0  0
   -1.0300   10.3430   -6.1040 C   0  0  0  0  0  0  0  0  0  0  0  0
    0.0190   11.1620   -6.1800 N   0  0  0  0  0  0  0  0  0  0  0  0
   -1.0910    9.0710   -6.8550 C   0  0  0  0  0  0  0  0  0  0  0  0
    1.6800   13.0000   -4.1700 C   0  0  0  0  0  0  0  0  0  0  0  0
    1.1420   12.2730   -2.9680 C   0  0  0  0  0  0  0  0  0  0  0  0
    0.6630   11.1470   -2.9700 O   0  0  0  0  0  0  0  0  0  0  0  0
    1.2370   12.9920   -1.8320 O   0  0  0  0  0  0  0  0  0  0  0  0
  1  2  1  0
  2  3  2  0
  2  4  1  0
  3  5  1  0
  4  6  2  0
  3  7  1  0
  5  8  1  0
  6  9  1  0
  7  9  2  0
  6 10  1  0
  8 11  1  0
  9 12  1  0
 10 13  1  0
 13 14  2  0
 12 15  2  0
 13 15  1  0
 11 16  1  0
 16 17  2  0
 16 18  1  0
 18 19  1  0
 17 20  1  0
 18 21  1  0
 20 21  2  0
 20 22  1  0
 19 23  1  0
 23 24  1  0
 24 25  2  0
 24 26  1  0
M  END
