mac-x0365-mac-x0277
     RDKit          3D

 24 25  0  0  0  0  0  0  0  0999 V2000
   -1.1090   14.7560   -1.2870 O   0  0  0  0  0  0  0  0  0  0  0  0
   -2.1680   14.8180   -2.1070 C   0  0  0  0  0  0  0  0  0  0  0  0
   -2.0050   14.7900   -3.3550 N   0  0  0  0  0  0  0  0  0  0  0  0
   -3.4150   14.9110   -1.4000 C   0  0  0  0  0  0  0  0  0  0  0  0
   -3.1840   14.8840   -4.2390 C   0  0  0  0  0  0  0  0  0  0  0  0
   -4.5260   14.9900   -2.2170 C   0  0  0  0  0  0  0  0  0  0  0  0
   -3.5230   14.9150   -0.0050 C   0  0  0  0  0  0  0  0  0  0  0  0
   -2.6570   15.6120   -5.4400 C   0  0  0  0  0  0  0  0  0  0  0  0
   -5.7620   15.0630   -1.6520 C   0  0  0  0  0  0  0  0  0  0  0  0
   -4.8000   14.9890    0.5620 C   0  0  0  0  0  0  0  0  0  0  0  0
   -6.8420   15.1340   -2.4350 F   0  0  0  0  0  0  0  0  0  0  0  0
   -5.9090   15.0580   -0.2830 C   0  0  0  0  0  0  0  0  0  0  0  0
   -1.1960   15.6950   -5.1210 C   0  0  0  0  0  0  0  0  0  0  0  0
   -7.1660   15.1180    0.2370 O   0  0  0  0  0  0  0  0  0  0  0  0
   -0.5390   14.4690   -4.9170 C   0  0  0  0  0  0  0  0  0  0  0  0
   -0.4810   16.8800   -5.0020 C   0  0  0  0  0  0  0  0  0  0  0  0
   -1.2240   18.4200   -5.2460 Cl  0  0  0  0  0  0  0  0  0  0  0  0
    0.8090   14.4090   -4.5860 C   0  0  0  0  0  0  0  0  0  0  0  0
    0.8750   16.8340   -4.6700 C   0  0  0  0  0  0  0  0  0  0  0  0
    1.4740   13.0710   -4.3640 C   0  0  0  0  0  0  0  0  0  0  0  0
    1.5120   15.6010   -4.4600 C   0  0  0  0  0  0  0  0  0  0  0  0
    1.0710   12.4130   -3.0610 C   0  0  0  0  0  0  0  0  0  0  0  0
    0.3120   11.3110   -3.2510 O   0  0  0  0  0  0  0  0  0  0  0  0
    1.3490   12.7580   -1.9280 O   0  0  0  0  0  0  0  0  0  0  0  0
  1  2  1  0
  2  3  2  3
  2  4  1  0
  3  5  1  0
  4  6  2  0
  4  7  1  0
  5  8  1  0
  6  9  1  0
  7 10  2  0
  9 11  1  0
  9 12  2  0
 10 12  1  0
  8 13  1  0
 12 14  1  0
 13 15  2  0
 13 16  1  0
 16 17  1  0
 15 18  1  0
 16 19  2  0
 18 20  1  0
 18 21  2  0
 19 21  1  0
 20 22  1  0
 22 23  1  0
 22 24  2  0
M  END
