mac-x0381-diamond-x0729_2_B
     RDKit          3D

 29 31  0  0  0  0  0  0  0  0999 V2000
   -7.9930   13.1600    3.9940 N   0  0  0  0  0  0  0  0  0  0  0  0
   -8.1460   14.4910    3.7280 C   0  0  0  0  0  0  0  0  0  0  0  0
   -7.1150   15.2540    3.7720 N   0  0  0  0  0  0  0  0  0  0  0  0
   -9.4710   15.0820    3.3640 C   0  0  0  0  0  0  0  0  0  0  0  0
   -9.5700   15.9020    2.2340 C   0  0  0  0  0  0  0  0  0  0  0  0
  -10.6130   14.8260    4.1270 C   0  0  0  0  0  0  0  0  0  0  0  0
  -10.7900   16.4740    1.8500 C   0  0  0  0  0  0  0  0  0  0  0  0
  -11.8420   15.3850    3.7550 C   0  0  0  0  0  0  0  0  0  0  0  0
  -11.9440   16.2080    2.6180 C   0  0  0  0  0  0  0  0  0  0  0  0
  -10.8850   17.3020    0.7170 C   0  0  0  0  0  0  0  0  0  0  0  0
  -13.1670   16.7730    2.2280 C   0  0  0  0  0  0  0  0  0  0  0  0
  -12.1080   17.8720    0.3350 C   0  0  0  0  0  0  0  0  0  0  0  0
  -12.1950   18.7700   -0.8770 C   0  0  0  0  0  0  0  0  0  0  0  0
  -13.2490   17.5960    1.1010 C   0  0  0  0  0  0  0  0  0  0  0  0
  -12.5450   20.2220   -0.5140 C   0  0  0  0  0  0  0  0  0  0  0  0
  -13.3610   21.0160   -1.5410 C   0  0  0  0  0  0  0  0  0  0  0  0
  -14.2990   21.9420   -0.8790 C   0  0  0  0  0  0  0  0  0  0  0  0
  -15.0430   22.6820   -0.2870 C   0  0  0  0  0  0  0  0  0  0  0  0
  -15.9380   23.5490    0.5210 C   0  0  2  0  0  0  0  0  0  0  0  0
  -16.9080   24.4110   -0.2960 C   0  0  0  0  0  0  0  0  0  0  0  0
  -15.1670   24.5440    1.3770 C   0  0  2  0  0  0  0  0  0  0  0  0
  -13.7610   24.1440    1.7130 C   0  0  0  0  0  0  0  0  0  0  0  0
  -16.1020   24.9060    2.4470 N   0  0  0  0  0  0  0  0  0  0  0  0
  -17.8040   25.3020    0.6030 C   0  0  0  0  0  0  0  0  0  0  0  0
  -15.8900   24.6940    4.1060 S   0  0  0  0  0  0  0  0  0  0  0  0
  -17.1800   25.7820    1.9410 C   0  0  0  0  0  0  0  0  0  0  0  0
  -16.3460   25.8560    4.8260 O   0  0  0  0  0  0  0  0  0  0  0  0
  -14.5410   24.2120    4.2390 O   0  0  0  0  0  0  0  0  0  0  0  0
  -16.9870   23.3610    4.5280 C   0  0  0  0  0  0  0  0  0  0  0  0
  1  2  1  0
  2  3  2  3
  2  4  1  0
  4  5  2  0
  4  6  1  0
  5  7  1  0
  6  8  2  0
  7  9  2  0
  8  9  1  0
  7 10  1  0
  9 11  1  0
 10 12  2  0
 12 13  1  0
 11 14  2  0
 12 14  1  0
 13 15  1  0
 15 16  1  0
 16 17  1  0
 17 18  3  0
 19 18  1  6
 19 20  1  0
 19 21  1  0
 21 22  1  1
 21 23  1  0
 20 24  1  0
 23 25  1  0
 23 26  1  0
 24 26  1  0
 25 27  2  0
 25 28  2  0
 25 29  1  0
M  END
