mac-x0437-diamond-x0253_0_A
     RDKit          3D

 17 19  0  0  0  0  0  0  0  0999 V2000
    0.8070   13.0320   -2.0220 O   0  0  0  0  0  0  0  0  0  0  0  0
    0.8680   12.3120   -3.1500 C   0  0  0  0  0  0  0  0  0  0  0  0
    0.6530   11.1150   -3.1280 O   0  0  0  0  0  0  0  0  0  0  0  0
    1.2110   13.1540   -4.3460 C   0  0  0  0  0  0  0  0  0  0  0  0
    0.5000   12.8560   -5.6600 C   0  0  1  0  0  0  0  0  0  0  0  0
    1.4480   11.9670   -6.5290 C   0  0  0  0  0  0  0  0  0  0  0  0
   -0.7210   12.0790   -5.7380 N   0  0  0  0  0  0  0  0  0  0  0  0
    2.6080   12.1770   -6.6410 O   0  0  0  0  0  0  0  0  0  0  0  0
   -1.9820   12.0140   -5.3390 C   0  0  0  0  0  0  0  0  0  0  0  0
   -0.5100   11.0070   -6.5360 C   0  0  0  0  0  0  0  0  0  0  0  0
    0.6990   10.8200   -7.0930 C   0  0  0  0  0  0  0  0  0  0  0  0
   -2.5820   10.9300   -5.8460 N   0  0  0  0  0  0  0  0  0  0  0  0
   -1.6390   10.2820   -6.6240 C   0  0  0  0  0  0  0  0  0  0  0  0
    0.8290    9.7210   -7.9140 C   0  0  0  0  0  0  0  0  0  0  0  0
   -1.5620    9.1330   -7.4340 C   0  0  0  0  0  0  0  0  0  0  0  0
   -0.2980    8.8850   -8.0770 C   0  0  0  0  0  0  0  0  0  0  0  0
   -2.6920    8.1900   -7.6580 C   0  0  0  0  0  0  0  0  0  0  0  0
  1  2  1  0
  2  3  2  0
  2  4  1  0
  5  4  1  1
  5  6  1  0
  5  7  1  0
  6  8  2  0
  7  9  1  0
  7 10  1  0
  6 11  1  0
 10 11  2  0
  9 12  2  0
 10 13  1  0
 12 13  1  0
 11 14  1  0
 13 15  2  0
 14 16  2  0
 15 16  1  0
 15 17  1  0
M  END
