mac-x0328-mac-x0337
     RDKit          3D

 20 21  0  0  0  0  0  0  0  0999 V2000
   -2.0900   14.0670   -3.5090 O   0  0  0  0  0  0  0  0  0  0  0  0
   -2.2790   14.5060   -2.1970 C   0  0  0  0  0  0  0  0  0  0  0  0
   -1.1990   15.3230   -1.8420 O   0  0  0  0  0  0  0  0  0  0  0  0
   -2.3850   13.4510   -1.0530 S   0  0  0  0  0  0  0  0  0  0  0  0
   -3.6310   14.9590   -1.9720 C   0  0  0  0  0  0  0  0  0  0  0  0
   -1.6280   13.5800    0.4640 O   0  0  0  0  0  0  0  0  0  0  0  0
   -3.4110   14.3560   -0.2050 N   0  0  0  0  0  0  0  0  0  0  0  0
   -3.8890   15.3440   -0.7000 C   0  0  0  0  0  0  0  0  0  0  0  0
   -4.6090   14.9450   -2.9170 C   0  0  0  0  0  0  0  0  0  0  0  0
   -3.6380   12.3060   -1.2830 C   0  0  0  0  0  0  0  0  0  0  0  0
   -5.1520   15.7090   -0.3000 C   0  0  0  0  0  0  0  0  0  0  0  0
   -5.8940   15.3160   -2.5060 C   0  0  0  0  0  0  0  0  0  0  0  0
   -3.4700   11.3280   -2.2150 C   0  0  0  0  0  0  0  0  0  0  0  0
   -4.8580   12.2500   -0.6180 C   0  0  0  0  0  0  0  0  0  0  0  0
   -6.1730   15.6860   -1.2160 C   0  0  0  0  0  0  0  0  0  0  0  0
   -4.3860   10.3680   -2.4880 C   0  0  0  0  0  0  0  0  0  0  0  0
   -5.8040   11.3130   -0.8540 C   0  0  0  0  0  0  0  0  0  0  0  0
   -7.4850   16.0180   -0.9000 O   0  0  0  0  0  0  0  0  0  0  0  0
   -5.5590   10.3460   -1.8110 C   0  0  0  0  0  0  0  0  0  0  0  0
   -6.5870    9.3000   -2.0680 C   0  0  0  0  0  0  0  0  0  0  0  0
  2  1  1  0
  2  3  1  0
  2  4  1  0
  2  5  1  0
  4  6  2  0
  4  7  1  0
  5  8  2  0
  5  9  1  0
  4 10  1  0
  8 11  1  0
  9 12  2  0
 10 13  2  0
 10 14  1  0
 11 15  2  0
 12 15  1  0
 13 16  1  0
 14 17  2  0
 15 18  1  0
 16 19  2  0
 17 19  1  0
 19 20  1  0
M  END
