mac-x0284-diamond-x1012_0_A
     RDKit          3D

 22 23  0  0  0  0  0  0  0  0999 V2000
   -4.2090   15.5510    0.9850 C   0  0  0  0  0  0  0  0  0  0  0  0
   -3.5470   15.2410   -0.3170 C   0  0  0  0  0  0  0  0  0  0  0  0
   -4.2630   15.2830   -1.5110 C   0  0  0  0  0  0  0  0  0  0  0  0
   -2.1850   14.9080   -0.3260 C   0  0  0  0  0  0  0  0  0  0  0  0
   -1.4950   14.6200   -1.5060 C   0  0  0  0  0  0  0  0  0  0  0  0
   -3.6190   14.9940   -2.7030 C   0  0  0  0  0  0  0  0  0  0  0  0
   -0.0150   14.3080   -1.3010 C   0  0  0  0  0  0  0  0  0  0  0  0
   -2.2560   14.6670   -2.7010 C   0  0  0  0  0  0  0  0  0  0  0  0
   -1.6980   14.3990   -3.9030 O   0  0  0  0  0  0  0  0  0  0  0  0
    0.6550   13.3450   -1.7920 N   0  0  0  0  0  0  0  0  0  0  0  0
    0.6300   15.1560   -0.5140 O   0  0  0  0  0  0  0  0  0  0  0  0
   -0.0730   12.5290   -2.6940 C   0  0  2  0  0  0  0  0  0  0  0  0
    0.6460   11.3980   -3.1540 O   0  0  0  0  0  0  0  0  0  0  0  0
   -0.2720   13.6260   -3.7420 C   0  0  0  0  0  0  0  0  0  0  0  0
   -1.2980   13.4120   -4.8330 C   0  0  0  0  0  0  0  0  0  0  0  0
    0.9960   14.2580   -4.3060 C   0  0  0  0  0  0  0  0  0  0  0  0
   -1.8540   14.7950   -5.1890 C   0  0  0  0  0  0  0  0  0  0  0  0
    0.6220   15.5720   -4.9820 C   0  0  0  0  0  0  0  0  0  0  0  0
   -0.8320   15.8870   -5.0610 N   0  0  0  0  0  0  0  0  0  0  0  0
   -1.2930   17.1730   -4.8650 C   0  0  0  0  0  0  0  0  0  0  0  0
   -0.3590   18.1490   -4.7600 N   0  0  0  0  0  0  0  0  0  0  0  0
   -2.4640   17.5000   -4.7770 O   0  0  0  0  0  0  0  0  0  0  0  0
  1  2  1  0
  2  3  2  0
  2  4  1  0
  4  5  2  0
  3  6  1  0
  5  7  1  0
  5  8  1  0
  6  8  2  0
  8  9  1  0
  7 10  2  3
  7 11  1  0
 10 12  1  0
 12 13  1  6
 12 14  1  0
 14 15  1  0
 14 16  1  0
 15 17  1  0
 16 18  1  0
 17 19  1  0
 18 19  1  0
 19 20  1  0
 20 21  1  0
 20 22  2  0
M  END
