mac-x0271-mac-x0255
     RDKit          3D

 28 31  0  0  0  0  0  0  0  0999 V2000
   -3.5630   15.3800   -2.9630 O   0  0  0  0  0  0  0  0  0  0  0  0
   -4.2350   15.2460   -1.7780 C   0  0  0  0  0  0  0  0  0  0  0  0
   -3.4970   15.2310   -0.5730 C   0  0  0  0  0  0  0  0  0  0  0  0
   -5.6280   15.1250   -1.7820 C   0  0  0  0  0  0  0  0  0  0  0  0
   -1.9840   15.3670   -0.5300 C   0  0  0  0  0  0  0  0  0  0  0  0
   -6.2930   14.9820   -0.5590 C   0  0  0  0  0  0  0  0  0  0  0  0
   -4.2040   15.0860    0.6410 C   0  0  0  0  0  0  0  0  0  0  0  0
   -1.1760   14.5660   -1.5720 C   0  0  0  0  0  0  0  0  0  0  0  0
   -5.5940   14.9590    0.6470 C   0  0  0  0  0  0  0  0  0  0  0  0
   -7.7030   14.8590   -0.5730 O   0  0  0  0  0  0  0  0  0  0  0  0
   -0.3430   13.4220   -0.9700 C   0  0  0  0  0  0  0  0  0  0  0  0
   -6.3410   14.8040    1.8860 C   0  0  0  0  0  0  0  0  0  0  0  0
   -8.4440   14.8370    0.6080 C   0  0  0  0  0  0  0  0  0  0  0  0
   -9.6690   14.9010    0.6210 O   0  0  0  0  0  0  0  0  0  0  0  0
    0.8220   13.1690   -1.7850 O   0  0  0  0  0  0  0  0  0  0  0  0
   -7.6760   14.7420    1.8660 C   0  0  0  0  0  0  0  0  0  0  0  0
    0.7340   12.2090   -2.7560 C   0  0  0  0  0  0  0  0  0  0  0  0
    0.2940   11.0730   -2.5800 O   0  0  0  0  0  0  0  0  0  0  0  0
    1.2690   12.7830   -4.0570 C   0  0  0  0  0  0  0  0  0  0  0  0
    0.6180   14.0840   -4.4320 C   0  0  0  0  0  0  0  0  0  0  0  0
    1.2010   15.3210   -4.6270 C   0  0  0  0  0  0  0  0  0  0  0  0
   -1.0790   14.1500   -4.6760 S   0  0  0  0  0  0  0  0  0  0  0  0
    0.2570   16.3370   -4.9860 C   0  0  0  0  0  0  0  0  0  0  0  0
   -1.0440   15.8290   -5.0480 C   0  0  0  0  0  0  0  0  0  0  0  0
    0.4550   17.7070   -5.2720 C   0  0  0  0  0  0  0  0  0  0  0  0
   -2.1430   16.6450   -5.3850 C   0  0  0  0  0  0  0  0  0  0  0  0
   -0.6310   18.5140   -5.6100 C   0  0  0  0  0  0  0  0  0  0  0  0
   -1.9080   17.9930   -5.6660 C   0  0  0  0  0  0  0  0  0  0  0  0
  1  2  1  0
  2  3  2  0
  2  4  1  0
  3  5  1  0
  4  6  2  0
  3  7  1  0
  5  8  1  0
  6  9  1  0
  7  9  2  0
  6 10  1  0
  8 11  1  0
  9 12  1  0
 10 13  1  0
 13 14  2  0
 11 15  1  0
 12 16  2  0
 13 16  1  0
 15 17  1  0
 17 18  2  0
 17 19  1  0
 19 20  1  0
 20 21  2  0
 20 22  1  0
 21 23  1  0
 22 24  1  0
 23 24  2  0
 23 25  1  0
 24 26  1  0
 25 27  2  0
 26 28  2  0
 27 28  1  0
M  END
