mac-x0188-mac-x0510
     RDKit          3D

 20 22  0  0  0  0  0  0  0  0999 V2000
    1.2880   13.4080   -5.0830 C   0  0  0  0  0  0  0  0  0  0  0  0
   -0.0090   13.6180   -4.4040 C   0  0  0  0  0  0  0  0  0  0  0  0
   -1.1170   13.5020   -5.1730 O   0  0  0  0  0  0  0  0  0  0  0  0
   -0.3710   13.9240   -3.0990 C   0  0  0  0  0  0  0  0  0  0  0  0
    0.5940   14.1220   -2.0410 C   0  0  0  0  0  0  0  0  0  0  0  0
   -2.2340   13.7220   -4.3970 N   0  0  0  0  0  0  0  0  0  0  0  0
   -1.8120   13.9760   -3.1400 C   0  0  0  0  0  0  0  0  0  0  0  0
    1.1230   15.1870   -1.8000 O   0  0  0  0  0  0  0  0  0  0  0  0
    0.9290   13.0450   -1.2900 O   0  0  0  0  0  0  0  0  0  0  0  0
   -2.8510   14.2530   -2.0430 C   0  0  2  0  0  0  0  0  0  0  0  0
   -4.0560   14.9650   -2.6340 C   0  0  0  0  0  0  0  0  0  0  0  0
   -2.4080   14.8550   -0.6320 C   0  0  2  0  0  0  0  0  0  0  0  0
   -5.0180   15.4990   -1.8790 C   0  0  0  0  0  0  0  0  0  0  0  0
   -3.5170   15.5850    0.1550 C   0  0  0  0  0  0  0  0  0  0  0  0
   -1.1780   15.7090   -0.7330 N   0  0  0  0  0  0  0  0  0  0  0  0
   -1.9190   13.8300    0.3710 C   0  0  0  0  0  0  0  0  0  0  0  0
   -4.8900   15.4080   -0.4230 C   0  0  0  0  0  0  0  0  0  0  0  0
   -1.1980   14.6550    1.3400 N   0  0  0  0  0  0  0  0  0  0  0  0
   -0.3810   15.4640    0.4640 C   0  0  0  0  0  0  0  0  0  0  0  0
   -5.8800   15.1800    0.2830 O   0  0  0  0  0  0  0  0  0  0  0  0
  1  2  1  0
  2  3  1  0
  2  4  2  0
  4  5  1  0
  3  6  1  0
  4  7  1  0
  6  7  2  0
  5  8  2  0
  5  9  1  0
 10  7  1  6
 10 11  1  0
 10 12  1  0
 11 13  2  0
 12 14  1  1
 12 15  1  0
 12 16  1  0
 13 17  1  0
 14 17  1  0
 16 18  1  0
 15 19  1  0
 18 19  1  0
 17 20  2  0
M  END
