mac-x0302-mac-x0371
     RDKit          3D

 24 25  0  0  0  0  0  0  0  0999 V2000
    1.6580   14.3770   -2.4160 O   0  0  0  0  0  0  0  0  0  0  0  0
    0.4850   13.7160   -2.4390 C   0  0  0  0  0  0  0  0  0  0  0  0
    0.6490   12.5320   -1.9680 N   0  0  0  0  0  0  0  0  0  0  0  0
   -0.5400   14.7080   -1.9240 C   0  0  0  0  0  0  0  0  0  0  0  0
    0.3690   11.4810   -2.8290 C   0  0  0  0  0  0  0  0  0  0  0  0
   -1.8650   14.2950   -2.3710 N   0  0  0  0  0  0  0  0  0  0  0  0
    0.3370   10.2850   -2.5130 O   0  0  0  0  0  0  0  0  0  0  0  0
    0.0580   11.9450   -4.2510 C   0  0  0  0  0  0  0  0  0  0  0  0
   -2.9790   15.1000   -2.4430 C   0  0  0  0  0  0  0  0  0  0  0  0
    0.3160   13.4230   -4.3970 C   0  0  0  0  0  0  0  0  0  0  0  0
   -3.2690   15.7880   -3.4110 O   0  0  0  0  0  0  0  0  0  0  0  0
   -3.8650   15.0700   -1.2530 C   0  0  0  0  0  0  0  0  0  0  0  0
   -0.7310   14.3480   -4.6020 C   0  0  0  0  0  0  0  0  0  0  0  0
    1.6100   13.9090   -4.3150 C   0  0  0  0  0  0  0  0  0  0  0  0
   -5.2540   15.0440   -1.3770 C   0  0  0  0  0  0  0  0  0  0  0  0
   -3.2680   15.0630    0.0110 C   0  0  0  0  0  0  0  0  0  0  0  0
    2.9640   12.8750   -4.0690 Cl  0  0  0  0  0  0  0  0  0  0  0  0
   -0.4640   15.7210   -4.7130 C   0  0  0  0  0  0  0  0  0  0  0  0
    1.8630   15.2530   -4.4190 C   0  0  0  0  0  0  0  0  0  0  0  0
   -6.0320   15.0070   -0.2280 C   0  0  0  0  0  0  0  0  0  0  0  0
   -4.0580   15.0280    1.1550 C   0  0  0  0  0  0  0  0  0  0  0  0
    0.8460   16.1770   -4.6180 C   0  0  0  0  0  0  0  0  0  0  0  0
   -7.3930   14.9800   -0.3020 O   0  0  0  0  0  0  0  0  0  0  0  0
   -5.4420   14.9970    1.0340 C   0  0  0  0  0  0  0  0  0  0  0  0
  1  2  1  0
  2  3  2  3
  2  4  1  0
  3  5  1  0
  4  6  1  0
  5  7  2  0
  5  8  1  0
  6  9  1  0
  8 10  1  0
  9 11  2  0
  9 12  1  0
 10 13  2  0
 10 14  1  0
 12 15  2  0
 12 16  1  0
 14 17  1  0
 13 18  1  0
 14 19  2  0
 15 20  1  0
 16 21  2  0
 18 22  2  0
 19 22  1  0
 20 23  1  0
 20 24  2  0
 21 24  1  0
M  END
