mac-x0178-diamond-x0628_0_A
     RDKit          3D

 22 23  0  0  0  0  0  0  0  0999 V2000
   -0.3750   18.2170   -6.5140 N   0  0  0  0  0  0  0  0  0  0  0  0
   -1.7190   17.6670   -5.6730 S   0  0  0  0  0  0  0  0  0  0  0  0
   -2.6280   17.1700   -6.6850 O   0  0  0  0  0  0  0  0  0  0  0  0
   -2.0640   18.6880   -4.7280 O   0  0  0  0  0  0  0  0  0  0  0  0
   -1.0370   16.3140   -4.7580 C   0  0  0  0  0  0  0  0  0  0  0  0
    0.2730   16.4020   -4.2850 C   0  0  0  0  0  0  0  0  0  0  0  0
   -1.8170   15.1830   -4.5250 C   0  0  0  0  0  0  0  0  0  0  0  0
    0.8100   15.3430   -3.5700 C   0  0  0  0  0  0  0  0  0  0  0  0
   -1.2670   14.1280   -3.8050 C   0  0  0  0  0  0  0  0  0  0  0  0
    0.0570   14.1900   -3.3170 C   0  0  0  0  0  0  0  0  0  0  0  0
    0.6870   13.0450   -2.5610 C   0  0  0  0  0  0  0  0  0  0  0  0
    1.6450   13.3990   -1.6020 O   0  0  0  0  0  0  0  0  0  0  0  0
   -0.2530   12.2340   -1.8430 O   0  0  0  0  0  0  0  0  0  0  0  0
    1.2960   12.2090   -3.6570 C   0  0  0  0  0  0  0  0  0  0  0  0
    0.7790   12.5480   -5.0620 C   0  0  0  0  0  0  0  0  0  0  0  0
   -0.1920   11.5980   -5.5410 N   0  0  0  0  0  0  0  0  0  0  0  0
    0.1380   10.8500   -6.6050 N   0  0  0  0  0  0  0  0  0  0  0  0
   -1.4570   11.2820   -5.0870 C   0  0  0  0  0  0  0  0  0  0  0  0
   -2.1700   11.8840   -3.9390 C   0  0  0  0  0  0  0  0  0  0  0  0
   -1.9460   10.3280   -5.8490 N   0  0  0  0  0  0  0  0  0  0  0  0
   -0.9470   10.0930   -6.7490 C   0  0  0  0  0  0  0  0  0  0  0  0
   -1.0600    9.0730   -7.7980 C   0  0  0  0  0  0  0  0  0  0  0  0
  2  1  1  0
  2  3  2  0
  2  4  2  0
  2  5  1  0
  5  6  2  0
  5  7  1  0
  6  8  1  0
  7  9  2  0
  8 10  2  0
  9 10  1  0
 10 11  1  0
 11 12  1  0
 11 13  1  0
 11 14  1  0
 14 15  1  0
 15 16  1  0
 16 17  1  0
 16 18  1  0
 18 19  1  0
 18 20  2  0
 17 21  2  0
 20 21  1  0
 21 22  1  0
M  END
