mac-x0436-diamond-x0742_0_A
     RDKit          3D

 34 38  0  0  0  0  0  0  0  0999 V2000
    0.5650   11.1700   -3.1300 O   0  0  0  0  0  0  0  0  0  0  0  0
    1.2580   12.3340   -3.0620 C   0  0  0  0  0  0  0  0  0  0  0  0
    1.5770   12.8270   -1.9990 O   0  0  0  0  0  0  0  0  0  0  0  0
    1.5600   12.9200   -4.4170 C   0  0  0  0  0  0  0  0  0  0  0  0
    0.3110   13.2750   -5.2140 C   0  0  0  0  0  0  0  0  0  0  0  0
   -0.4230   12.0070   -5.6060 C   0  0  0  0  0  0  0  0  0  0  0  0
   -1.7810   11.6800   -4.9390 C   0  0  0  0  0  0  0  0  0  0  0  0
    0.0930   11.2140   -6.5020 N   0  0  0  0  0  0  0  0  0  0  0  0
   -2.3140   12.6020   -4.2260 N   0  0  0  0  0  0  0  0  0  0  0  0
   -2.2990   10.4320   -5.1800 N   0  0  0  0  0  0  0  0  0  0  0  0
   -0.6030   10.0460   -6.8660 C   0  0  0  0  0  0  0  0  0  0  0  0
   -3.6010   12.3250   -3.5910 C   0  0  0  0  0  0  0  0  0  0  0  0
   -1.7920    9.6490   -6.2180 C   0  0  0  0  0  0  0  0  0  0  0  0
   -0.0930    9.2650   -7.9030 C   0  0  0  0  0  0  0  0  0  0  0  0
   -3.3910   11.6940   -2.2100 C   0  0  0  0  0  0  0  0  0  0  0  0
   -0.7520    8.0990   -8.3010 C   0  0  0  0  0  0  0  0  0  0  0  0
   -2.4460    8.4810   -6.6190 C   0  0  0  0  0  0  0  0  0  0  0  0
   -4.5420   11.6640   -1.3380 N   0  0  0  0  0  0  0  0  0  0  0  0
   -1.9270    7.7090   -7.6580 C   0  0  0  0  0  0  0  0  0  0  0  0
   -5.1840   12.5590   -0.6950 C   0  0  0  0  0  0  0  0  0  0  0  0
   -6.3220   11.9480    0.1100 C   0  0  0  0  0  0  0  0  0  0  0  0
   -4.9260   14.1010   -0.6560 C   0  0  2  0  0  0  0  0  0  0  0  0
   -4.9750   14.7480    0.7370 C   0  0  1  0  0  0  0  0  0  0  0  0
   -6.1550   14.8460   -1.2240 C   0  0  0  0  0  0  0  0  0  0  0  0
   -3.5790   14.5020   -1.3050 C   0  0  0  0  0  0  0  0  0  0  0  0
   -6.4120   14.4640    1.1830 C   0  0  0  0  0  0  0  0  0  0  0  0
   -2.3840   14.4440   -0.3750 C   0  0  0  0  0  0  0  0  0  0  0  0
   -3.8520   14.3220    1.6680 C   0  0  0  0  0  0  0  0  0  0  0  0
   -7.2100   14.7040   -0.1130 C   0  0  0  0  0  0  0  0  0  0  0  0
   -1.0840   14.4690   -0.8990 C   0  0  0  0  0  0  0  0  0  0  0  0
   -2.5180   14.3670    1.0090 C   0  0  0  0  0  0  0  0  0  0  0  0
   -1.4660   14.3300    1.8470 N   0  0  0  0  0  0  0  0  0  0  0  0
    0.0110   14.4240   -0.0370 C   0  0  0  0  0  0  0  0  0  0  0  0
   -0.2420   14.3570    1.3190 C   0  0  0  0  0  0  0  0  0  0  0  0
  1  2  1  0
  2  3  2  0
  2  4  1  0
  4  5  1  0
  5  6  1  0
  6  7  1  0
  6  8  2  0
  7  9  2  3
  7 10  1  0
  8 11  1  0
  9 12  1  0
 10 13  1  0
 11 13  2  0
 11 14  1  0
 12 15  1  0
 14 16  2  0
 13 17  1  0
 15 18  1  0
 16 19  1  0
 17 19  2  0
 18 20  2  3
 20 21  1  0
 22 20  1  1
 22 23  1  0
 22 24  1  0
 22 25  1  0
 23 26  1  1
 25 27  1  0
 23 28  1  0
 24 29  1  0
 26 29  1  0
 27 30  2  0
 27 31  1  0
 28 31  1  0
 31 32  2  0
 30 33  1  0
 32 34  1  0
 33 34  2  0
M  END
