mac-x0321-diamond-x0962_2_B
     RDKit          3D

 20 21  0  0  0  0  0  0  0  0999 V2000
   -4.4190   15.3570    1.5630 Cl  0  0  0  0  0  0  0  0  0  0  0  0
   -4.5200   15.1160   -0.1280 C   0  0  0  0  0  0  0  0  0  0  0  0
   -3.2920   15.0440   -0.7850 C   0  0  0  0  0  0  0  0  0  0  0  0
   -5.7390   14.9910   -0.8330 C   0  0  0  0  0  0  0  0  0  0  0  0
   -7.1330   15.0110   -0.2050 C   0  0  0  0  0  0  0  0  0  0  0  0
   -3.2430   14.8570   -2.1620 C   0  0  0  0  0  0  0  0  0  0  0  0
   -5.6630   14.8210   -2.2190 C   0  0  0  0  0  0  0  0  0  0  0  0
   -1.9220   14.7640   -2.8340 C   0  0  0  0  0  0  0  0  0  0  0  0
   -8.1520   15.9640   -0.8610 C   0  0  0  0  0  0  0  0  0  0  0  0
   -4.4320   14.7550   -2.8800 C   0  0  0  0  0  0  0  0  0  0  0  0
   -0.8880   14.6820   -1.9750 O   0  0  0  0  0  0  0  0  0  0  0  0
   -1.7440   14.7480   -4.0360 O   0  0  0  0  0  0  0  0  0  0  0  0
   -9.3440   16.4380    0.0200 C   0  0  0  0  0  0  0  0  0  0  0  0
   -9.8510   15.5150    1.1650 C   0  0  2  0  0  0  0  0  0  0  0  0
  -11.2050   15.9450    1.4690 N   0  0  0  0  0  0  0  0  0  0  0  0
   -9.1330   15.3890    2.4840 C   0  0  0  0  0  0  0  0  0  0  0  0
   -9.1120   16.3100    3.5180 N   0  0  0  0  0  0  0  0  0  0  0  0
   -8.3630   14.3470    2.9640 C   0  0  0  0  0  0  0  0  0  0  0  0
   -8.3510   15.7900    4.5330 C   0  0  0  0  0  0  0  0  0  0  0  0
   -7.8960   14.6030    4.2220 N   0  0  0  0  0  0  0  0  0  0  0  0
  1  2  1  0
  2  3  2  0
  2  4  1  0
  4  5  1  0
  3  6  1  0
  4  7  2  0
  6  8  1  0
  5  9  1  0
  6 10  2  0
  7 10  1  0
  8 11  1  0
  8 12  2  0
  9 13  1  0
 13 14  1  0
 14 15  1  1
 14 16  1  0
 16 17  1  0
 16 18  2  0
 17 19  1  0
 18 20  1  0
 19 20  2  0
M  END
