mac-x0338-diamond-x0465_0_A
     RDKit          3D

 25 26  0  0  0  0  0  0  0  0999 V2000
   -4.1300   15.4510    2.0150 N   0  0  0  0  0  0  0  0  0  0  0  0
   -5.0800   15.1390    1.0920 C   0  0  0  0  0  0  0  0  0  0  0  0
   -6.2420   14.9400    1.4350 O   0  0  0  0  0  0  0  0  0  0  0  0
   -4.6550   15.0520   -0.3180 C   0  0  0  0  0  0  0  0  0  0  0  0
   -3.3350   14.8500   -0.5890 N   0  0  0  0  0  0  0  0  0  0  0  0
   -5.6110   15.1740   -1.3040 C   0  0  0  0  0  0  0  0  0  0  0  0
   -3.0210   14.7740   -1.9110 C   0  0  0  0  0  0  0  0  0  0  0  0
   -5.3100   15.0970   -2.6110 N   0  0  0  0  0  0  0  0  0  0  0  0
   -1.5890   14.5440   -2.3290 C   0  0  0  0  0  0  0  0  0  0  0  0
   -4.0040   14.8990   -2.8890 C   0  0  0  0  0  0  0  0  0  0  0  0
   -0.6100   14.4080   -1.1610 C   0  0  0  0  0  0  0  0  0  0  0  0
    0.7230   13.8500   -1.6520 C   0  0  0  0  0  0  0  0  0  0  0  0
    0.6010   12.3950   -1.6380 N   0  0  0  0  0  0  0  0  0  0  0  0
    0.5820   11.7460   -2.7600 C   0  0  0  0  0  0  0  0  0  0  0  0
    0.6860   12.4060   -4.1720 C   0  0  1  0  0  0  0  0  0  0  0  0
    0.4530   10.3890   -2.7140 O   0  0  0  0  0  0  0  0  0  0  0  0
    2.0500   13.0970   -4.3320 C   0  0  0  0  0  0  0  0  0  0  0  0
    0.6080   11.5030   -5.2760 O   0  0  0  0  0  0  0  0  0  0  0  0
   -0.5230   10.7930   -5.5830 C   0  0  0  0  0  0  0  0  0  0  0  0
   -0.6530    9.7860   -6.5490 C   0  0  0  0  0  0  0  0  0  0  0  0
   -1.6540   11.1340   -4.8310 C   0  0  0  0  0  0  0  0  0  0  0  0
    0.3760    9.3960   -7.3180 F   0  0  0  0  0  0  0  0  0  0  0  0
   -1.8660    9.1360   -6.7570 C   0  0  0  0  0  0  0  0  0  0  0  0
   -2.8760   10.4850   -5.0380 C   0  0  0  0  0  0  0  0  0  0  0  0
   -2.9820    9.4840   -6.0000 C   0  0  0  0  0  0  0  0  0  0  0  0
  1  2  1  0
  2  3  2  0
  2  4  1  0
  4  5  2  0
  4  6  1  0
  5  7  1  0
  6  8  2  0
  7  9  1  0
  7 10  2  0
  8 10  1  0
  9 11  1  0
 11 12  1  0
 12 13  1  0
 13 14  2  3
 14 15  1  0
 14 16  1  0
 15 17  1  1
 15 18  1  0
 18 19  1  0
 19 20  2  0
 19 21  1  0
 20 22  1  0
 20 23  1  0
 21 24  2  0
 23 25  2  0
 24 25  1  0
M  END
