mac-x0284-diamond-x0711_0_A
     RDKit          3D

 15 15  0  0  0  0  0  0  0  0999 V2000
   -3.6600   15.4970    1.2540 C   0  0  0  0  0  0  0  0  0  0  0  0
   -3.4760   15.2300   -0.2060 C   0  0  0  0  0  0  0  0  0  0  0  0
   -4.5570   14.9740   -1.0590 C   0  0  0  0  0  0  0  0  0  0  0  0
   -2.1680   15.2370   -0.7080 C   0  0  0  0  0  0  0  0  0  0  0  0
   -5.9650   14.9430   -0.4720 C   0  0  0  0  0  0  0  0  0  0  0  0
   -1.8670   14.9980   -2.0570 C   0  0  0  0  0  0  0  0  0  0  0  0
   -4.2850   14.7430   -2.4390 C   0  0  0  0  0  0  0  0  0  0  0  0
   -0.4080   15.0190   -2.4830 C   0  0  0  0  0  0  0  0  0  0  0  0
   -6.0740   14.6920    0.8800 N   0  0  0  0  0  0  0  0  0  0  0  0
   -6.9900   15.1040   -1.1140 O   0  0  0  0  0  0  0  0  0  0  0  0
   -2.9490   14.7580   -2.9190 C   0  0  0  0  0  0  0  0  0  0  0  0
   -2.6830   14.5320   -4.2470 O   0  0  0  0  0  0  0  0  0  0  0  0
    0.5510   14.9100   -1.4700 O   0  0  0  0  0  0  0  0  0  0  0  0
   -0.1270   13.9890   -3.3860 O   0  0  0  0  0  0  0  0  0  0  0  0
   -0.1740   16.2190   -3.1900 N   0  0  0  0  0  0  0  0  0  0  0  0
  1  2  1  0
  2  3  2  0
  2  4  1  0
  3  5  1  0
  4  6  2  0
  3  7  1  0
  6  8  1  0
  5  9  1  0
  5 10  2  0
  6 11  1  0
  7 11  2  0
 11 12  1  0
  8 13  1  0
  8 14  1  0
  8 15  1  0
M  END
