mac-x0436-diamond-x0849_0_A
     RDKit          3D

 29 32  0  0  0  0  0  0  0  0999 V2000
    0.5700   11.1630   -3.1530 O   0  0  0  0  0  0  0  0  0  0  0  0
    1.2160   12.3420   -3.1150 C   0  0  0  0  0  0  0  0  0  0  0  0
    1.5150   12.8450   -2.0500 O   0  0  0  0  0  0  0  0  0  0  0  0
    1.4880   12.9220   -4.4830 C   0  0  0  0  0  0  0  0  0  0  0  0
    0.1960   13.3320   -5.1770 C   0  0  0  0  0  0  0  0  0  0  0  0
   -0.5340   12.1190   -5.7180 C   0  0  0  0  0  0  0  0  0  0  0  0
   -2.0300   11.8780   -5.3910 C   0  0  0  0  0  0  0  0  0  0  0  0
    0.1190   11.2670   -6.4660 N   0  0  0  0  0  0  0  0  0  0  0  0
   -2.8210   12.8190   -4.9640 N   0  0  0  0  0  0  0  0  0  0  0  0
   -2.4610   10.5940   -5.5760 N   0  0  0  0  0  0  0  0  0  0  0  0
   -0.5480   10.1040   -6.9260 C   0  0  0  0  0  0  0  0  0  0  0  0
   -2.5300   14.2130   -4.6670 C   0  0  0  0  0  0  0  0  0  0  0  0
   -1.8350    9.7640   -6.4760 C   0  0  0  0  0  0  0  0  0  0  0  0
    0.0860    9.2650   -7.8430 C   0  0  0  0  0  0  0  0  0  0  0  0
   -3.5810   14.6230   -3.6090 C   0  0  0  0  0  0  0  0  0  0  0  0
   -0.5530    8.1060   -8.3010 C   0  0  0  0  0  0  0  0  0  0  0  0
   -2.4710    8.6090   -6.9290 C   0  0  0  0  0  0  0  0  0  0  0  0
   -3.0080   15.4010   -2.5590 O   0  0  0  0  0  0  0  0  0  0  0  0
   -1.8310    7.7790   -7.8430 C   0  0  0  0  0  0  0  0  0  0  0  0
   -3.3120   15.2600   -1.2100 C   0  0  0  0  0  0  0  0  0  0  0  0
   -2.2180   14.9210   -0.3740 C   0  0  0  0  0  0  0  0  0  0  0  0
   -4.5600   15.4350   -0.6250 C   0  0  0  0  0  0  0  0  0  0  0  0
   -2.4290   14.7900    1.0040 C   0  0  0  0  0  0  0  0  0  0  0  0
   -4.6490   15.2730    0.7410 C   0  0  0  0  0  0  0  0  0  0  0  0
   -0.9080   14.7180   -0.8570 C   0  0  0  0  0  0  0  0  0  0  0  0
   -3.6220   14.9630    1.5360 N   0  0  0  0  0  0  0  0  0  0  0  0
   -1.4510   14.4900    1.8400 N   0  0  0  0  0  0  0  0  0  0  0  0
    0.1090   14.4030    0.0220 C   0  0  0  0  0  0  0  0  0  0  0  0
   -0.2210   14.3020    1.3580 C   0  0  0  0  0  0  0  0  0  0  0  0
  1  2  1  0
  2  3  2  0
  2  4  1  0
  4  5  1  0
  5  6  1  0
  6  7  1  0
  6  8  2  0
  7  9  2  3
  7 10  1  0
  8 11  1  0
  9 12  1  0
 10 13  1  0
 11 13  2  0
 11 14  1  0
 12 15  1  0
 14 16  2  0
 13 17  1  0
 15 18  1  0
 16 19  1  0
 17 19  2  0
 18 20  1  0
 20 21  1  0
 20 22  2  0
 21 23  2  0
 22 24  1  0
 21 25  1  0
 23 26  1  0
 24 26  2  0
 23 27  1  0
 25 28  2  0
 27 29  2  0
 28 29  1  0
M  END
