mac-x0213-mac-x0371
     RDKit          3D

 14 15  0  0  0  0  0  0  0  0999 V2000
    0.1930   11.1250   -3.0760 N   0  0  0  0  0  0  0  0  0  0  0  0
    0.1860   12.5560   -2.7200 C   0  0  0  0  0  0  0  0  0  0  0  0
    0.4570   12.8110   -1.5340 O   0  0  0  0  0  0  0  0  0  0  0  0
    0.3800   10.3830   -2.1070 O   0  0  0  0  0  0  0  0  0  0  0  0
   -0.1370   13.5920   -3.7800 C   0  0  1  0  0  0  0  0  0  0  0  0
   -1.5320   14.2230   -3.6870 C   0  0  0  0  0  0  0  0  0  0  0  0
    0.8460   14.7290   -3.6410 C   0  0  1  0  0  0  0  0  0  0  0  0
    2.3150   14.0200   -4.3540 Cl  0  0  0  0  0  0  0  0  0  0  0  0
   -1.2790   15.5180   -4.3990 C   0  0  0  0  0  0  0  0  0  0  0  0
    0.0940   15.8290   -4.3860 C   0  0  0  0  0  0  0  0  0  0  0  0
   -2.2090   16.3520   -5.0060 C   0  0  0  0  0  0  0  0  0  0  0  0
    0.5410   17.0000   -4.9910 C   0  0  0  0  0  0  0  0  0  0  0  0
   -1.7550   17.5250   -5.6110 C   0  0  0  0  0  0  0  0  0  0  0  0
   -0.3890   17.8460   -5.6030 C   0  0  0  0  0  0  0  0  0  0  0  0
  1  2  1  0
  2  3  2  0
  1  4  2  0
  5  2  1  1
  5  6  1  0
  5  7  1  0
  7  8  1  6
  6  9  1  0
  7 10  1  0
  9 10  2  0
  9 11  1  0
 10 12  1  0
 11 13  2  0
 12 14  2  0
 13 14  1  0
M  END
