mac-x0436-mac-x0357
     RDKit          3D

 18 19  0  0  0  0  0  0  0  0999 V2000
    0.4400   11.2720   -2.5710 O   0  0  0  0  0  0  0  0  0  0  0  0
    0.8700   12.5610   -2.9030 C   0  0  0  0  0  0  0  0  0  0  0  0
    1.9750   12.8150   -2.0950 O   0  0  0  0  0  0  0  0  0  0  0  0
    1.2180   12.6480   -4.3960 C   0  0  0  0  0  0  0  0  0  0  0  0
   -0.1080   13.5220   -2.5680 O   0  0  0  0  0  0  0  0  0  0  0  0
    0.1570   13.3610   -5.2440 C   0  0  0  0  0  0  0  0  0  0  0  0
   -0.8800   12.4380   -5.9430 C   0  0  2  0  0  0  0  0  0  0  0  0
   -1.8750   11.7870   -4.9520 C   0  0  0  0  0  0  0  0  0  0  0  0
   -0.2720   11.4530   -6.8980 N   0  0  0  0  0  0  0  0  0  0  0  0
   -2.1020   12.1990   -3.8140 O   0  0  0  0  0  0  0  0  0  0  0  0
    1.1710   11.7290   -7.0030 O   0  0  0  0  0  0  0  0  0  0  0  0
   -2.5440   10.6880   -5.3980 N   0  0  0  0  0  0  0  0  0  0  0  0
   -0.4310    9.9990   -6.5730 C   0  0  1  0  0  0  0  0  0  0  0  0
   -1.7950    9.5780   -5.9260 C   0  0  2  0  0  0  0  0  0  0  0  0
    0.0110    9.0380   -7.6640 C   0  0  0  0  0  0  0  0  0  0  0  0
   -0.8380    8.1790   -8.2540 C   0  0  0  0  0  0  0  0  0  0  0  0
   -2.7020    8.7670   -6.8120 C   0  0  0  0  0  0  0  0  0  0  0  0
   -2.2340    8.1200   -7.8900 C   0  0  0  0  0  0  0  0  0  0  0  0
  2  1  1  0
  2  3  1  0
  2  4  1  0
  2  5  1  0
  4  6  1  0
  7  6  1  1
  7  8  1  0
  7  9  1  0
  8 10  2  0
  9 11  1  0
  8 12  1  0
  9 13  1  0
 12 14  1  0
 13 14  1  0
 13 15  1  6
 15 16  2  0
 14 17  1  6
 16 18  1  0
 17 18  2  0
M  END
