mac-x0412-mac-x0124
     RDKit          3D

 21 24  0  0  0  0  0  0  0  0999 V2000
   -8.1160   14.8570    0.4180 O   0  0  0  0  0  0  0  0  0  0  0  0
   -6.9080   14.7460    0.6300 C   0  0  0  0  0  0  0  0  0  0  0  0
   -6.3450   15.0500    1.8800 N   0  0  0  0  0  0  0  0  0  0  0  0
   -5.9750   14.2880   -0.4930 C   0  0  2  0  0  0  0  0  0  0  0  0
   -4.5430   14.5590   -0.1770 C   0  0  0  0  0  0  0  0  0  0  0  0
   -5.0370   15.1750    2.0200 C   0  0  0  0  0  0  0  0  0  0  0  0
   -6.2980   14.7710   -1.8870 C   0  0  0  0  0  0  0  0  0  0  0  0
   -4.0540   14.9600    0.9450 C   0  0  0  0  0  0  0  0  0  0  0  0
   -3.6260   14.3260   -1.2620 C   0  0  0  0  0  0  0  0  0  0  0  0
   -5.3510   14.8240   -2.8350 C   0  0  0  0  0  0  0  0  0  0  0  0
   -4.0080   14.4470   -2.5260 C   0  0  0  0  0  0  0  0  0  0  0  0
   -2.6070   15.0190    0.8010 C   0  0  0  0  0  0  0  0  0  0  0  0
   -2.2790   15.3180   -0.5190 C   0  0  0  0  0  0  0  0  0  0  0  0
   -1.6460   14.7750    1.7150 N   0  0  0  0  0  0  0  0  0  0  0  0
   -3.0130   15.6330   -1.6980 C   0  0  0  0  0  0  0  0  0  0  0  0
   -0.9530   15.3210   -0.8630 C   0  0  0  0  0  0  0  0  0  0  0  0
   -0.3730   14.8240    1.2280 C   0  0  0  0  0  0  0  0  0  0  0  0
   -0.8710   15.6040   -2.2100 N   0  0  0  0  0  0  0  0  0  0  0  0
   -2.1210   15.8010   -2.7210 C   0  0  0  0  0  0  0  0  0  0  0  0
    0.0570   15.0810   -0.0310 N   0  0  0  0  0  0  0  0  0  0  0  0
    0.3410   15.6800   -2.9760 C   0  0  0  0  0  0  0  0  0  0  0  0
  1  2  2  0
  2  3  1  0
  2  4  1  0
  4  5  1  0
  3  6  2  0
  4  7  1  6
  5  8  2  0
  6  8  1  0
  5  9  1  0
  7 10  2  0
  9 11  2  0
 10 11  1  0
  8 12  1  0
 12 13  1  0
 12 14  2  0
 13 15  1  0
 13 16  2  0
 14 17  1  0
 16 18  1  0
 15 19  2  0
 18 19  1  0
 16 20  1  0
 17 20  2  0
 18 21  1  0
M  END
