mac-x0411-mac-x0213
     RDKit          3D

 23 25  0  0  0  0  0  0  0  0999 V2000
    0.9400    9.1330   -7.6380 Cl  0  0  0  0  0  0  0  0  0  0  0  0
   -0.4820    9.5700   -6.7680 C   0  0  0  0  0  0  0  0  0  0  0  0
   -0.6250   10.8130   -6.1240 C   0  0  0  0  0  0  0  0  0  0  0  0
   -1.5140    8.6280   -6.7250 C   0  0  0  0  0  0  0  0  0  0  0  0
    0.3850   11.7510   -6.1630 O   0  0  0  0  0  0  0  0  0  0  0  0
   -1.8280   11.0790   -5.4520 C   0  0  0  0  0  0  0  0  0  0  0  0
   -2.6980    8.9120   -6.0500 C   0  0  0  0  0  0  0  0  0  0  0  0
   -2.1210   12.5620   -4.6410 Cl  0  0  0  0  0  0  0  0  0  0  0  0
    1.4550   11.5760   -5.2280 C   0  0  0  0  0  0  0  0  0  0  0  0
   -2.8520   10.1360   -5.4150 C   0  0  0  0  0  0  0  0  0  0  0  0
    0.9870   11.5460   -3.7870 C   0  0  0  0  0  0  0  0  0  0  0  0
    0.7840   12.8940   -3.1290 C   0  0  0  0  0  0  0  0  0  0  0  0
    0.7650   10.5250   -3.1490 O   0  0  0  0  0  0  0  0  0  0  0  0
    0.9700   13.0090   -1.9210 O   0  0  0  0  0  0  0  0  0  0  0  0
    0.3510   13.9950   -4.0860 C   0  0  0  0  0  0  0  0  0  0  0  0
   -1.1100   14.4300   -3.8650 C   0  0  0  0  0  0  0  0  0  0  0  0
    1.1660   15.2870   -3.9330 C   0  0  0  0  0  0  0  0  0  0  0  0
   -1.0910   15.7680   -4.5270 C   0  0  0  0  0  0  0  0  0  0  0  0
    0.2160   16.2610   -4.5620 C   0  0  0  0  0  0  0  0  0  0  0  0
   -2.1520   16.4880   -5.0540 C   0  0  0  0  0  0  0  0  0  0  0  0
    0.4920   17.4920   -5.1240 C   0  0  0  0  0  0  0  0  0  0  0  0
   -1.8780   17.7320   -5.6260 C   0  0  0  0  0  0  0  0  0  0  0  0
   -0.5660   18.2280   -5.6580 C   0  0  0  0  0  0  0  0  0  0  0  0
  1  2  1  0
  2  3  2  0
  2  4  1  0
  3  5  1  0
  3  6  1  0
  4  7  2  0
  6  8  1  0
  5  9  1  0
  6 10  2  0
  7 10  1  0
  9 11  1  0
 11 12  1  0
 11 13  2  0
 12 14  2  0
 12 15  1  0
 15 16  1  0
 15 17  1  0
 16 18  1  0
 17 19  1  0
 18 19  2  0
 18 20  1  0
 19 21  1  0
 20 22  2  0
 21 23  2  0
 22 23  1  0
M  END
