mac-x0271-mac-x0284
     RDKit          3D

 22 24  0  0  0  0  0  0  0  0999 V2000
   -6.1410   14.9970   -3.9020 O   0  0  0  0  0  0  0  0  0  0  0  0
   -6.1190   14.9800   -2.5540 C   0  0  0  0  0  0  0  0  0  0  0  0
   -4.9400   14.9400   -1.9990 C   0  0  0  0  0  0  0  0  0  0  0  0
   -7.1980   14.9980   -1.7780 C   0  0  0  0  0  0  0  0  0  0  0  0
   -7.0090   14.9620   -0.4100 C   0  0  0  0  0  0  0  0  0  0  0  0
   -4.6750   14.9060   -0.6690 C   0  0  0  0  0  0  0  0  0  0  0  0
   -5.7530   14.9090    0.2650 C   0  0  0  0  0  0  0  0  0  0  0  0
   -8.2340   14.9790    0.2280 O   0  0  0  0  0  0  0  0  0  0  0  0
   -3.3360   14.8750   -1.1150 C   0  0  0  0  0  0  0  0  0  0  0  0
   -5.8360   14.8570    1.7290 C   0  0  0  0  0  0  0  0  0  0  0  0
   -8.3390   14.8580    1.5710 C   0  0  0  0  0  0  0  0  0  0  0  0
   -1.9900   14.7330   -0.7870 C   0  0  0  0  0  0  0  0  0  0  0  0
   -3.7040   15.0570   -2.4500 C   0  0  0  0  0  0  0  0  0  0  0  0
   -9.4430   14.7970    2.0950 O   0  0  0  0  0  0  0  0  0  0  0  0
   -7.0620   14.8240    2.3250 C   0  0  0  0  0  0  0  0  0  0  0  0
   -1.0900   14.7590   -1.9280 C   0  0  0  0  0  0  0  0  0  0  0  0
   -2.8710   15.0950   -3.4990 C   0  0  0  0  0  0  0  0  0  0  0  0
    0.3610   14.5880   -1.7740 C   0  0  0  0  0  0  0  0  0  0  0  0
   -1.5670   14.9380   -3.2410 C   0  0  0  0  0  0  0  0  0  0  0  0
   -0.7260   14.9570   -4.3170 O   0  0  0  0  0  0  0  0  0  0  0  0
    0.9390   14.6190   -0.7210 O   0  0  0  0  0  0  0  0  0  0  0  0
    0.9980   14.3840   -2.9480 O   0  0  0  0  0  0  0  0  0  0  0  0
  1  2  1  0
  2  3  2  0
  2  4  1  0
  4  5  2  0
  3  6  1  0
  5  7  1  0
  6  7  2  0
  5  8  1  0
  6  9  1  0
  7 10  1  0
  8 11  1  0
  9 12  2  0
  9 13  1  0
 11 14  2  0
 10 15  2  0
 11 15  1  0
 12 16  1  0
 13 17  2  0
 16 18  1  0
 16 19  2  0
 17 19  1  0
 19 20  1  0
 18 21  2  0
 18 22  1  0
M  END
