mac-x0231-mac-x0306
     RDKit          3D

 27 30  0  0  0  0  0  0  0  0999 V2000
    0.6870   10.8520   -3.2730 O   0  0  0  0  0  0  0  0  0  0  0  0
    1.3770   12.0050   -3.1000 C   0  0  0  0  0  0  0  0  0  0  0  0
    1.5140   12.4890   -1.9920 O   0  0  0  0  0  0  0  0  0  0  0  0
    1.9240   12.6140   -4.3730 C   0  0  0  0  0  0  0  0  0  0  0  0
    1.3990   14.0050   -4.4590 C   0  0  0  0  0  0  0  0  0  0  0  0
   -0.0410   14.1500   -4.5310 C   0  0  0  0  0  0  0  0  0  0  0  0
    2.2040   14.9960   -4.3870 N   0  0  0  0  0  0  0  0  0  0  0  0
   -0.5530   15.4360   -4.5580 C   0  0  0  0  0  0  0  0  0  0  0  0
    1.6840   16.2470   -4.4140 N   0  0  0  0  0  0  0  0  0  0  0  0
   -0.8590   13.0350   -4.5430 C   0  0  0  0  0  0  0  0  0  0  0  0
    0.3680   16.5730   -4.5650 C   0  0  0  0  0  0  0  0  0  0  0  0
   -1.9260   15.6150   -4.5580 C   0  0  0  0  0  0  0  0  0  0  0  0
   -2.2160   13.2080   -4.5420 C   0  0  0  0  0  0  0  0  0  0  0  0
   -0.0200   17.7290   -4.7000 O   0  0  0  0  0  0  0  0  0  0  0  0
   -2.7350   14.4850   -4.5310 C   0  0  0  0  0  0  0  0  0  0  0  0
   -4.1800   14.6140   -4.4590 C   0  0  0  0  0  0  0  0  0  0  0  0
   -4.5060   14.8330   -3.0210 N   0  0  0  0  0  0  0  0  0  0  0  0
   -5.7850   15.2070   -2.7990 C   0  0  0  0  0  0  0  0  0  0  0  0
   -3.7320   14.4640   -1.8860 C   0  0  0  0  0  0  0  0  0  0  0  0
   -6.2840   15.4790   -1.6300 C   0  0  0  0  0  0  0  0  0  0  0  0
   -4.1520   14.6860   -0.6090 C   0  0  0  0  0  0  0  0  0  0  0  0
   -5.4960   15.3740   -0.3650 C   0  0  0  0  0  0  0  0  0  0  0  0
   -6.5580   14.8410    0.5780 C   0  0  0  0  0  0  0  0  0  0  0  0
   -6.4420   14.4990    1.9050 N   0  0  0  0  0  0  0  0  0  0  0  0
   -7.8160   14.6580    0.1840 N   0  0  0  0  0  0  0  0  0  0  0  0
   -8.5060   14.2030    1.2590 C   0  0  0  0  0  0  0  0  0  0  0  0
   -7.6720   14.0980    2.3390 C   0  0  0  0  0  0  0  0  0  0  0  0
  1  2  1  0
  2  3  2  0
  2  4  1  0
  4  5  1  0
  5  6  1  0
  5  7  2  0
  6  8  2  0
  7  9  1  0
  6 10  1  0
  8 11  1  0
  9 11  1  0
  8 12  1  0
 10 13  2  0
 11 14  2  0
 12 15  2  0
 13 15  1  0
 15 16  1  0
 16 17  1  0
 17 18  1  0
 17 19  1  0
 18 20  2  0
 19 21  2  0
 20 22  1  0
 21 22  1  0
 22 23  1  0
 23 24  1  0
 23 25  2  0
 25 26  1  0
 24 27  1  0
 26 27  2  0
M  END
