mac-x0360-mac-x0303
     RDKit          3D

 24 26  0  0  0  0  0  0  0  0999 V2000
   -7.2060   12.2530    2.0470 C   0  0  0  0  0  0  0  0  0  0  0  0
   -8.2410   13.6800    1.7150 S   0  0  0  0  0  0  0  0  0  0  0  0
   -8.1100   14.7080    2.7330 O   0  0  0  0  0  0  0  0  0  0  0  0
   -6.1770   12.1430    0.9140 C   0  0  0  0  0  0  0  0  0  0  0  0
   -9.5220   13.3260    1.1320 O   0  0  0  0  0  0  0  0  0  0  0  0
   -6.3670   11.2520   -0.1640 C   0  0  0  0  0  0  0  0  0  0  0  0
   -5.0040   12.9370    0.9010 C   0  0  0  0  0  0  0  0  0  0  0  0
   -7.2370   14.1730    0.3900 C   0  0  0  0  0  0  0  0  0  0  0  0
   -4.0590   12.8540   -0.1360 C   0  0  0  0  0  0  0  0  0  0  0  0
   -5.4200   11.1700   -1.1990 C   0  0  0  0  0  0  0  0  0  0  0  0
   -7.4580   13.7520   -0.8890 N   0  0  0  0  0  0  0  0  0  0  0  0
   -6.1820   14.9420    0.4840 N   0  0  0  0  0  0  0  0  0  0  0  0
   -5.6840   10.0660   -2.4980 Cl  0  0  0  0  0  0  0  0  0  0  0  0
   -2.5950   13.8830   -0.1030 S   0  0  0  0  0  0  0  0  0  0  0  0
   -4.2690   11.9610   -1.1960 C   0  0  0  0  0  0  0  0  0  0  0  0
   -6.4600   14.2630   -1.6630 C   0  0  0  0  0  0  0  0  0  0  0  0
   -5.6830   14.9970   -0.7780 C   0  0  0  0  0  0  0  0  0  0  0  0
   -1.4810   13.0280   -1.0240 N   0  0  0  0  0  0  0  0  0  0  0  0
   -2.8110   15.0720   -0.8740 O   0  0  0  0  0  0  0  0  0  0  0  0
   -2.0410   13.9490    1.2300 O   0  0  0  0  0  0  0  0  0  0  0  0
   -6.1730   14.1440   -3.0190 C   0  0  0  0  0  0  0  0  0  0  0  0
   -4.5570   15.6560   -1.2370 C   0  0  0  0  0  0  0  0  0  0  0  0
   -5.0290   14.8040   -3.4630 C   0  0  0  0  0  0  0  0  0  0  0  0
   -4.2340   15.5460   -2.5910 C   0  0  0  0  0  0  0  0  0  0  0  0
  2  1  1  0
  2  3  2  0
  1  4  1  0
  2  5  2  0
  4  6  2  0
  4  7  1  0
  2  8  1  0
  7  9  2  0
  6 10  1  0
  8 11  1  0
  8 12  2  0
 10 13  1  0
  9 14  1  0
  9 15  1  0
 10 15  2  0
 11 16  1  0
 12 17  1  0
 16 17  2  0
 14 18  1  0
 14 19  2  0
 14 20  2  0
 16 21  1  0
 17 22  1  0
 21 23  2  0
 22 24  2  0
 23 24  1  0
M  END
