mac-x0228-mac-x0588
     RDKit          3D

 27 31  0  0  0  0  0  0  0  0999 V2000
   -0.8620   12.1430   -1.3080 O   0  0  0  0  0  0  0  0  0  0  0  0
   -0.5750   12.6630   -2.5560 C   0  0  0  0  0  0  0  0  0  0  0  0
   -0.1850   13.9460   -2.7830 C   0  0  0  0  0  0  0  0  0  0  0  0
   -0.7460   11.7530   -3.6970 C   0  0  0  0  0  0  0  0  0  0  0  0
   -1.3810   12.2770   -4.8320 C   0  0  0  0  0  0  0  0  0  0  0  0
   -0.3040   10.4130   -3.6760 C   0  0  0  0  0  0  0  0  0  0  0  0
   -0.0540   14.9110   -1.7740 N   0  0  0  0  0  0  0  0  0  0  0  0
    0.1440   14.5210   -4.1780 C   0  0  1  0  0  0  0  0  0  0  0  0
   -1.5580   11.4560   -5.9180 C   0  0  0  0  0  0  0  0  0  0  0  0
   -0.4990    9.5930   -4.7960 C   0  0  0  0  0  0  0  0  0  0  0  0
   -0.8110   16.0980   -2.0030 C   0  0  0  0  0  0  0  0  0  0  0  0
   -0.2840   14.6480   -0.3800 C   0  0  1  0  0  0  0  0  0  0  0  0
   -0.9720   15.2490   -4.7470 O   0  0  0  0  0  0  0  0  0  0  0  0
    1.3730   15.4300   -4.2420 C   0  0  0  0  0  0  0  0  0  0  0  0
   -1.1220   10.1390   -5.8950 C   0  0  0  0  0  0  0  0  0  0  0  0
   -2.1840   11.7290   -7.2250 C   0  0  0  0  0  0  0  0  0  0  0  0
   -2.2730   15.9460   -1.9360 N   0  0  0  0  0  0  0  0  0  0  0  0
   -1.7660   14.4600   -0.0530 C   0  0  2  0  0  0  0  0  0  0  0  0
    0.2410   13.5490    0.3560 N   0  0  0  0  0  0  0  0  0  0  0  0
    0.9330   16.6660   -4.9860 C   0  0  0  0  0  0  0  0  0  0  0  0
   -0.5780   16.6180   -4.9460 C   0  0  0  0  0  0  0  0  0  0  0  0
   -1.3740    9.4600   -7.0580 O   0  0  0  0  0  0  0  0  0  0  0  0
   -1.5980   10.5460   -7.9970 C   0  0  0  0  0  0  0  0  0  0  0  0
   -2.6270   15.6400   -0.5610 C   0  0  2  0  0  0  0  0  0  0  0  0
   -1.6960   14.3510    1.4320 N   0  0  0  0  0  0  0  0  0  0  0  0
   -0.3360   13.8480    1.6520 C   0  0  0  0  0  0  0  0  0  0  0  0
   -4.0370   15.3120   -0.6520 N   0  0  0  0  0  0  0  0  0  0  0  0
  1  2  1  0
  2  3  2  3
  2  4  1  0
  4  5  2  0
  4  6  1  0
  3  7  1  0
  8  3  1  1
  5  9  1  0
  6 10  2  0
  7 11  1  0
  7 12  1  0
  8 13  1  0
  8 14  1  0
  9 15  2  0
 10 15  1  0
  9 16  1  0
 11 17  1  0
 12 18  1  0
 12 19  1  6
 14 20  1  0
 13 21  1  0
 20 21  1  0
 15 22  1  0
 16 23  1  0
 22 23  1  0
 17 24  1  0
 18 24  1  0
 18 25  1  1
 19 26  1  0
 25 26  1  0
 24 27  1  6
M  END
