mac-x0357-diamond-x0962_3_A
     RDKit          3D

 17 18  0  0  0  0  0  0  0  0999 V2000
    2.5370   13.1070   -4.5620 C   0  0  0  0  0  0  0  0  0  0  0  0
    1.0970   12.6840   -4.7100 C   0  0  0  0  0  0  0  0  0  0  0  0
    0.6170   11.9800   -5.8160 C   0  0  0  0  0  0  0  0  0  0  0  0
    0.1060   12.9600   -3.7210 C   0  0  0  0  0  0  0  0  0  0  0  0
    1.1930   11.4730   -6.9630 C   0  0  0  0  0  0  0  0  0  0  0  0
    0.3710   13.6800   -2.4590 C   0  0  0  0  0  0  0  0  0  0  0  0
   -1.2320   12.5520   -3.8750 C   0  0  0  0  0  0  0  0  0  0  0  0
   -0.7180   11.5960   -5.9390 C   0  0  0  0  0  0  0  0  0  0  0  0
   -0.1200   14.7310   -2.1240 O   0  0  0  0  0  0  0  0  0  0  0  0
    1.2270   13.0260   -1.6600 O   0  0  0  0  0  0  0  0  0  0  0  0
    1.0840   10.6430   -7.7490 C   0  0  0  0  0  0  0  0  0  0  0  0
   -1.6450   11.8720   -4.9880 C   0  0  0  0  0  0  0  0  0  0  0  0
    0.3960    9.5300   -8.1920 C   0  0  0  0  0  0  0  0  0  0  0  0
    0.6690    8.5590   -9.0920 N   0  0  0  0  0  0  0  0  0  0  0  0
   -0.8450    9.2280   -7.6800 C   0  0  0  0  0  0  0  0  0  0  0  0
   -0.4170    7.7130   -9.0770 C   0  0  0  0  0  0  0  0  0  0  0  0
   -1.3470    8.0990   -8.2320 N   0  0  0  0  0  0  0  0  0  0  0  0
  1  2  1  0
  2  3  2  0
  2  4  1  0
  3  5  1  0
  4  6  1  0
  4  7  2  0
  3  8  1  0
  6  9  2  0
  6 10  1  0
  5 11  3  0
  7 12  1  0
  8 12  2  0
 11 13  1  0
 13 14  1  0
 13 15  2  0
 14 16  1  0
 15 17  1  0
 16 17  2  0
M  END
