mac-x0180-mac-x0567
     RDKit          3D

 17 18  0  0  0  0  0  0  0  0999 V2000
   -7.8130   14.5050    1.5960 C   0  0  0  0  0  0  0  0  0  0  0  0
   -6.8470   14.7130    0.4610 C   0  0  0  0  0  0  0  0  0  0  0  0
   -7.2460   14.7460   -0.7000 O   0  0  0  0  0  0  0  0  0  0  0  0
   -5.5380   14.8620    0.8700 N   0  0  0  0  0  0  0  0  0  0  0  0
   -4.4660   14.8760   -0.0330 C   0  0  0  0  0  0  0  0  0  0  0  0
   -3.1420   14.7170    0.4380 C   0  0  0  0  0  0  0  0  0  0  0  0
   -4.5770   15.0330   -1.4270 C   0  0  0  0  0  0  0  0  0  0  0  0
   -2.0230   14.7080   -0.4810 C   0  0  0  0  0  0  0  0  0  0  0  0
   -3.4560   15.0270   -2.3040 C   0  0  0  0  0  0  0  0  0  0  0  0
   -2.7050   14.5550    1.7050 N   0  0  0  0  0  0  0  0  0  0  0  0
   -2.1160   14.8610   -1.8770 C   0  0  0  0  0  0  0  0  0  0  0  0
   -0.9130   14.5240    0.2980 C   0  0  0  0  0  0  0  0  0  0  0  0
   -1.3680   14.4420    1.5800 N   0  0  0  0  0  0  0  0  0  0  0  0
   -1.0470   14.8760   -2.8830 C   0  0  0  0  0  0  0  0  0  0  0  0
    0.3920   14.4270   -0.0090 N   0  0  0  0  0  0  0  0  0  0  0  0
   -1.2250   14.8770   -4.0890 O   0  0  0  0  0  0  0  0  0  0  0  0
    0.2040   14.9030   -2.4020 O   0  0  0  0  0  0  0  0  0  0  0  0
  1  2  1  0
  2  3  2  0
  2  4  1  0
  4  5  1  0
  5  6  1  0
  5  7  2  0
  6  8  1  0
  7  9  1  0
  6 10  2  0
  8 11  1  0
  9 11  2  0
  8 12  2  0
 10 13  1  0
 12 13  1  0
 11 14  1  0
 12 15  1  0
 14 16  2  0
 14 17  1  0
M  END
