mac-x0402-mac-x0306
     RDKit          3D

 15 17  0  0  0  0  0  0  0  0999 V2000
   -3.3870   15.1030   -3.5990 Cl  0  0  0  0  0  0  0  0  0  0  0  0
   -4.2820   14.6520   -2.0990 C   0  0  2  0  0  0  0  0  0  0  0  0
   -5.7520   15.0880   -2.1120 C   0  0  0  0  0  0  0  0  0  0  0  0
   -3.4640   15.1860   -0.9170 C   0  0  0  0  0  0  0  0  0  0  0  0
   -4.2100   15.0910    0.3490 C   0  0  0  0  0  0  0  0  0  0  0  0
   -6.4620   14.8340   -0.7340 C   0  0  0  0  0  0  0  0  0  0  0  0
   -5.5480   14.9500    0.4120 C   0  0  0  0  0  0  0  0  0  0  0  0
   -3.5850   15.1400    1.9240 S   0  0  0  0  0  0  0  0  0  0  0  0
   -7.0580   13.5040   -0.4980 N   0  0  0  0  0  0  0  0  0  0  0  0
   -7.7660   15.5330   -0.6250 N   0  0  0  0  0  0  0  0  0  0  0  0
   -5.1860   14.9900    2.5460 C   0  0  0  0  0  0  0  0  0  0  0  0
   -6.1020   14.8930    1.6570 N   0  0  0  0  0  0  0  0  0  0  0  0
   -8.3830   14.9620    0.4880 C   0  0  0  0  0  0  0  0  0  0  0  0
   -7.9410   13.7140    0.5750 C   0  0  0  0  0  0  0  0  0  0  0  0
   -5.4840   14.9750    3.8470 N   0  0  0  0  0  0  0  0  0  0  0  0
  2  1  1  6
  2  3  1  0
  2  4  1  0
  4  5  1  0
  3  6  1  0
  5  7  2  0
  6  7  1  0
  5  8  1  0
  6  9  1  0
  6 10  1  0
  8 11  1  0
  7 12  1  0
 11 12  2  0
 10 13  1  0
  9 14  1  0
 13 14  2  0
 11 15  1  0
M  END
