mac-x0394-diamond-x0950_1_A
     RDKit          3D

 14 14  0  0  0  0  0  0  0  0999 V2000
    0.9880   18.2190   -4.8350 Cl  0  0  0  0  0  0  0  0  0  0  0  0
    0.1350   16.7470   -4.8440 C   0  0  0  0  0  0  0  0  0  0  0  0
   -1.2170   16.7800   -5.1490 C   0  0  0  0  0  0  0  0  0  0  0  0
    0.7860   15.5410   -4.5550 C   0  0  0  0  0  0  0  0  0  0  0  0
    0.0460   14.3410   -4.5780 C   0  0  0  0  0  0  0  0  0  0  0  0
   -1.9230   15.5930   -5.1680 C   0  0  0  0  0  0  0  0  0  0  0  0
   -3.5880   15.5620   -5.5490 Cl  0  0  0  0  0  0  0  0  0  0  0  0
    0.6030   12.9690   -4.3030 C   0  0  2  0  0  0  0  0  0  0  0  0
   -1.3030   14.3910   -4.8850 C   0  0  0  0  0  0  0  0  0  0  0  0
    0.6870   12.4690   -2.8810 C   0  0  0  0  0  0  0  0  0  0  0  0
    1.8660   12.7500   -5.0970 C   0  0  0  0  0  0  0  0  0  0  0  0
    0.5310   11.1360   -2.8090 O   0  0  0  0  0  0  0  0  0  0  0  0
    0.8650   13.1140   -1.8630 O   0  0  0  0  0  0  0  0  0  0  0  0
    1.6060   11.9490   -6.2540 O   0  0  0  0  0  0  0  0  0  0  0  0
  1  2  1  0
  2  3  2  0
  2  4  1  0
  4  5  2  0
  3  6  1  0
  6  7  1  0
  5  8  1  0
  5  9  1  0
  6  9  2  0
  8 10  1  0
  8 11  1  1
 10 12  1  0
 10 13  2  0
 11 14  1  0
M  END
