mac-x0417-diamond-x0950_0_A
     RDKit          3D

 15 16  0  0  0  0  0  0  0  0999 V2000
    0.7630   12.6790   -2.3260 O   0  0  0  0  0  0  0  0  0  0  0  0
    0.5350   11.7930   -3.3160 C   0  0  0  0  0  0  0  0  0  0  0  0
    0.0510   10.7050   -3.0640 O   0  0  0  0  0  0  0  0  0  0  0  0
    0.9510   12.2680   -4.6760 C   0  0  2  0  0  0  0  0  0  0  0  0
    1.0800   13.7620   -4.7110 C   0  0  0  0  0  0  0  0  0  0  0  0
    0.4920   11.4820   -5.8680 C   0  0  0  0  0  0  0  0  0  0  0  0
    2.3930   14.1460   -4.0650 C   0  0  0  0  0  0  0  0  0  0  0  0
    1.2560   11.4870   -6.9600 N   0  0  0  0  0  0  0  0  0  0  0  0
   -0.6570   10.6590   -6.0580 C   0  0  0  0  0  0  0  0  0  0  0  0
    0.6370   10.6780   -7.8840 O   0  0  0  0  0  0  0  0  0  0  0  0
   -0.5000   10.1800   -7.3490 C   0  0  0  0  0  0  0  0  0  0  0  0
   -1.7890   10.2530   -5.3300 C   0  0  0  0  0  0  0  0  0  0  0  0
   -1.3820    9.3150   -7.9870 C   0  0  0  0  0  0  0  0  0  0  0  0
   -2.7010    9.3800   -5.9450 C   0  0  0  0  0  0  0  0  0  0  0  0
   -2.4990    8.9190   -7.2480 C   0  0  0  0  0  0  0  0  0  0  0  0
  1  2  1  0
  2  3  2  0
  2  4  1  0
  4  5  1  6
  4  6  1  0
  5  7  1  0
  6  8  2  0
  6  9  1  0
  8 10  1  0
  9 11  2  0
 10 11  1  0
  9 12  1  0
 11 13  1  0
 12 14  2  0
 13 15  2  0
 14 15  1  0
M  END
