mac-x0584-mac-x0283
     RDKit          3D

 23 27  0  0  0  0  0  0  0  0999 V2000
   -6.7880   15.0930    2.3430 N   0  0  0  0  0  0  0  0  0  0  0  0
   -6.2980   14.4440    1.1580 C   0  0  1  0  0  0  0  0  0  0  0  0
   -7.1320   14.5850    0.0110 N   0  0  0  0  0  0  0  0  0  0  0  0
   -4.8620   14.6750    0.6100 C   0  0  2  0  0  0  0  0  0  0  0  0
   -3.8440   14.9850    1.6200 N   0  0  0  0  0  0  0  0  0  0  0  0
   -4.3640   15.3930   -0.6500 C   0  0  0  0  0  0  0  0  0  0  0  0
   -6.3150   13.6920   -0.8400 O   0  0  0  0  0  0  0  0  0  0  0  0
   -5.0860   13.3670   -0.0740 C   0  0  0  0  0  0  0  0  0  0  0  0
   -2.6610   14.8390    0.8960 C   0  0  0  0  0  0  0  0  0  0  0  0
   -2.8840   15.0220   -0.4770 C   0  0  0  0  0  0  0  0  0  0  0  0
   -1.5170   14.5500    1.5020 N   0  0  0  0  0  0  0  0  0  0  0  0
   -1.7760   14.8350   -1.2990 C   0  0  0  0  0  0  0  0  0  0  0  0
   -1.7040   14.9190   -2.6750 N   0  0  0  0  0  0  0  0  0  0  0  0
   -0.5930   14.5360   -0.6940 N   0  0  0  0  0  0  0  0  0  0  0  0
   -0.5160   14.4180    0.6450 C   0  0  0  0  0  0  0  0  0  0  0  0
   -0.9900   14.0960   -3.6080 C   0  0  2  0  0  0  0  0  0  0  0  0
   -2.8790   15.3430   -3.4310 C   0  0  0  0  0  0  0  0  0  0  0  0
    0.3650   13.5910   -3.1630 C   0  0  0  0  0  0  0  0  0  0  0  0
   -0.9020   15.0510   -4.8020 C   0  0  0  0  0  0  0  0  0  0  0  0
   -2.2970   15.6800   -4.8150 C   0  0  0  0  0  0  0  0  0  0  0  0
    1.5880   13.8400   -4.0800 C   0  0  0  0  0  0  0  0  0  0  0  0
    0.6330   12.0630   -3.2190 C   0  0  0  0  0  0  0  0  0  0  0  0
    1.7640   12.3400   -4.2210 C   0  0  0  0  0  0  0  0  0  0  0  0
  2  1  1  1
  2  3  1  0
  2  4  1  0
  4  5  1  0
  4  6  1  6
  3  7  1  0
  4  8  1  0
  7  8  1  0
  5  9  1  0
  6 10  1  0
  9 10  2  0
  9 11  1  0
 10 12  1  0
 12 13  1  0
 12 14  2  0
 11 15  2  0
 14 15  1  0
 13 16  1  0
 13 17  1  0
 16 18  1  1
 16 19  1  0
 17 20  1  0
 19 20  1  0
 18 21  1  0
 18 22  1  0
 21 23  1  0
 22 23  1  0
M  END
