mac-x0437-mac-x0321
     RDKit          3D

 25 27  0  0  0  0  0  0  0  0999 V2000
    1.8130   12.8900   -2.2500 O   0  0  0  0  0  0  0  0  0  0  0  0
    1.2880   12.2200   -3.2930 C   0  0  0  0  0  0  0  0  0  0  0  0
    0.6230   11.2040   -3.1450 O   0  0  0  0  0  0  0  0  0  0  0  0
    1.5830   12.8350   -4.6440 C   0  0  0  0  0  0  0  0  0  0  0  0
    0.2890   13.2630   -5.3350 C   0  0  2  0  0  0  0  0  0  0  0  0
   -0.2610   14.4870   -4.5580 C   0  0  0  0  0  0  0  0  0  0  0  0
   -0.5640   12.0880   -5.5520 N   0  0  0  0  0  0  0  0  0  0  0  0
   -1.6690   14.5450   -4.1390 N   0  0  0  0  0  0  0  0  0  0  0  0
   -1.7210   11.7610   -4.8970 C   0  0  0  0  0  0  0  0  0  0  0  0
   -0.3160   11.0960   -6.4820 C   0  0  0  0  0  0  0  0  0  0  0  0
   -1.9410   14.7770   -2.9050 C   0  0  0  0  0  0  0  0  0  0  0  0
   -2.2280   10.6290   -5.3400 N   0  0  0  0  0  0  0  0  0  0  0  0
   -1.3720   10.2010   -6.3200 C   0  0  0  0  0  0  0  0  0  0  0  0
    0.6980   10.8910   -7.4250 C   0  0  0  0  0  0  0  0  0  0  0  0
   -0.9060   14.9020   -2.0580 O   0  0  0  0  0  0  0  0  0  0  0  0
   -1.4310    9.0490   -7.1200 C   0  0  0  0  0  0  0  0  0  0  0  0
    0.6240    9.7390   -8.2160 C   0  0  0  0  0  0  0  0  0  0  0  0
   -3.2000   14.9740   -2.1780 C   0  0  0  0  0  0  0  0  0  0  0  0
   -0.4240    8.8290   -8.0670 C   0  0  0  0  0  0  0  0  0  0  0  0
   -3.1640   15.0900   -0.7890 C   0  0  0  0  0  0  0  0  0  0  0  0
   -4.4050   15.0590   -2.8690 C   0  0  0  0  0  0  0  0  0  0  0  0
   -4.3470   15.3020   -0.1020 C   0  0  0  0  0  0  0  0  0  0  0  0
   -5.5920   15.2680   -2.1630 C   0  0  0  0  0  0  0  0  0  0  0  0
   -4.2960   15.4600    1.5970 Cl  0  0  0  0  0  0  0  0  0  0  0  0
   -5.5600   15.3900   -0.7780 C   0  0  0  0  0  0  0  0  0  0  0  0
  1  2  1  0
  2  3  2  0
  2  4  1  0
  5  4  1  1
  5  6  1  0
  5  7  1  0
  6  8  1  0
  7  9  1  0
  7 10  1  0
  8 11  2  3
  9 12  2  0
 10 13  2  0
 12 13  1  0
 10 14  1  0
 11 15  1  0
 13 16  1  0
 14 17  2  0
 11 18  1  0
 16 19  2  0
 17 19  1  0
 18 20  2  0
 18 21  1  0
 20 22  1  0
 21 23  2  0
 22 24  1  0
 22 25  2  0
 23 25  1  0
M  END
