mac-x0510-diamond-x0933_0_A
     RDKit          3D

 11 12  0  0  0  0  0  0  0  0999 V2000
   -6.1560   14.9290    0.7970 O   0  0  0  0  0  0  0  0  0  0  0  0
   -4.9770   15.0130    0.4660 C   0  0  0  0  0  0  0  0  0  0  0  0
   -4.6390   15.1870   -0.8560 N   0  0  0  0  0  0  0  0  0  0  0  0
   -3.9630   14.9280    1.3810 N   0  0  0  0  0  0  0  0  0  0  0  0
   -2.6800   14.8260    0.9470 C   0  0  0  0  0  0  0  0  0  0  0  0
   -3.3710   15.1270   -1.3790 C   0  0  0  0  0  0  0  0  0  0  0  0
   -3.1350   15.2560   -2.5740 O   0  0  0  0  0  0  0  0  0  0  0  0
   -2.3860   14.9170   -0.3770 C   0  0  0  0  0  0  0  0  0  0  0  0
   -1.5760   14.6330    1.7040 N   0  0  0  0  0  0  0  0  0  0  0  0
   -1.0340   14.7740   -0.4540 N   0  0  0  0  0  0  0  0  0  0  0  0
   -0.5860   14.6090    0.8320 C   0  0  0  0  0  0  0  0  0  0  0  0
  1  2  2  0
  2  3  1  0
  2  4  1  0
  4  5  1  0
  3  6  1  0
  6  7  2  0
  5  8  2  0
  6  8  1  0
  5  9  1  0
  8 10  1  0
  9 11  2  0
 10 11  1  0
M  END
