mac-x0397-mac-x0415
     RDKit          3D

 27 30  0  0  0  0  0  0  0  0999 V2000
   -6.5330   14.2370   -2.3700 Cl  0  0  0  0  0  0  0  0  0  0  0  0
   -4.9300   14.4050   -1.7790 C   0  0  0  0  0  0  0  0  0  0  0  0
   -4.8690   14.7020   -0.4220 C   0  0  0  0  0  0  0  0  0  0  0  0
   -3.7750   14.2550   -2.5540 C   0  0  0  0  0  0  0  0  0  0  0  0
   -5.9380   14.8230    0.4510 N   0  0  0  0  0  0  0  0  0  0  0  0
   -3.6080   14.8870    0.1360 C   0  0  0  0  0  0  0  0  0  0  0  0
   -2.5310   14.4510   -1.9510 C   0  0  0  0  0  0  0  0  0  0  0  0
   -3.8480   13.8820   -4.0080 C   0  0  0  0  0  0  0  0  0  0  0  0
   -5.4990   15.0730    1.6380 C   0  0  0  0  0  0  0  0  0  0  0  0
   -3.7890   15.2460    1.7830 S   0  0  0  0  0  0  0  0  0  0  0  0
   -2.4260   14.7750   -0.6000 C   0  0  0  0  0  0  0  0  0  0  0  0
   -4.4380   15.0200   -4.7730 C   0  0  0  0  0  0  0  0  0  0  0  0
   -6.3300   15.1740    2.6910 N   0  0  0  0  0  0  0  0  0  0  0  0
   -3.6930   15.4710   -5.8950 O   0  0  0  0  0  0  0  0  0  0  0  0
   -2.3970   15.7080   -5.5430 C   0  0  0  0  0  0  0  0  0  0  0  0
   -1.8520   17.0560   -5.7720 C   0  0  0  0  0  0  0  0  0  0  0  0
   -1.6510   14.7090   -5.0190 C   0  0  0  0  0  0  0  0  0  0  0  0
   -0.2980   14.9800   -4.6850 C   0  0  0  0  0  0  0  0  0  0  0  0
   -0.6630   17.4040   -5.2470 C   0  0  0  0  0  0  0  0  0  0  0  0
    0.7570   14.1810   -4.5310 C   0  0  0  0  0  0  0  0  0  0  0  0
    0.0450   16.3950   -4.4150 C   0  0  2  0  0  0  0  0  0  0  0  0
    0.9830   12.7300   -4.6020 C   0  0  0  0  0  0  0  0  0  0  0  0
    1.7950   15.1730   -4.2760 C   0  0  0  0  0  0  0  0  0  0  0  0
    1.4680   16.4260   -4.2620 N   0  0  0  0  0  0  0  0  0  0  0  0
    0.7930   12.1940   -3.1990 C   0  0  0  0  0  0  0  0  0  0  0  0
   -0.0100   11.1110   -3.1430 O   0  0  0  0  0  0  0  0  0  0  0  0
    1.2780   12.6580   -2.1720 O   0  0  0  0  0  0  0  0  0  0  0  0
  1  2  1  0
  2  3  2  0
  2  4  1  0
  3  5  1  0
  3  6  1  0
  4  7  2  0
  4  8  1  0
  5  9  2  0
  6 10  1  0
  9 10  1  0
  6 11  2  0
  7 11  1  0
  8 12  1  0
  9 13  1  0
 12 14  1  0
 14 15  1  0
 15 16  1  0
 15 17  2  0
 17 18  1  0
 16 19  2  0
 18 20  2  0
 18 21  1  0
 21 19  1  6
 20 22  1  0
 20 23  1  0
 21 24  1  0
 23 24  2  0
 22 25  1  0
 25 26  1  0
 25 27  2  0
M  END
