mac-x0277-diamond-x0742_0_A
     RDKit          3D

 29 32  0  0  0  0  0  0  0  0999 V2000
   -1.3150   18.4850   -5.1510 Cl  0  0  0  0  0  0  0  0  0  0  0  0
   -0.6370   16.9080   -5.0150 C   0  0  0  0  0  0  0  0  0  0  0  0
   -1.4180   15.7580   -5.1450 C   0  0  0  0  0  0  0  0  0  0  0  0
    0.7340   16.7950   -4.7680 C   0  0  0  0  0  0  0  0  0  0  0  0
   -3.1130   15.8030   -5.4460 Cl  0  0  0  0  0  0  0  0  0  0  0  0
   -0.8320   14.5070   -5.0400 C   0  0  0  0  0  0  0  0  0  0  0  0
    1.3190   15.5340   -4.6600 C   0  0  0  0  0  0  0  0  0  0  0  0
    0.5320   14.3800   -4.8020 C   0  0  0  0  0  0  0  0  0  0  0  0
    1.1140   13.0060   -4.6890 C   0  0  0  0  0  0  0  0  0  0  0  0
    0.9490   12.6740   -3.2520 C   0  0  0  0  0  0  0  0  0  0  0  0
    0.7770   11.3800   -2.9110 O   0  0  0  0  0  0  0  0  0  0  0  0
    0.9730   13.6530   -2.4440 N   0  0  0  0  0  0  0  0  0  0  0  0
    0.8380   13.3670   -1.0660 C   0  0  0  0  0  0  0  0  0  0  0  0
   -0.3930   13.8340   -0.3790 C   0  0  0  0  0  0  0  0  0  0  0  0
   -0.4150   13.9790    1.0100 C   0  0  0  0  0  0  0  0  0  0  0  0
   -1.5470   14.1250   -1.0840 C   0  0  0  0  0  0  0  0  0  0  0  0
   -1.4780   14.3810    1.7220 N   0  0  0  0  0  0  0  0  0  0  0  0
   -2.6670   14.5420   -0.3980 C   0  0  0  0  0  0  0  0  0  0  0  0
   -3.9990   14.9020   -0.9960 C   0  0  2  0  0  0  0  0  0  0  0  0
   -2.5820   14.6540    0.9960 C   0  0  0  0  0  0  0  0  0  0  0  0
   -5.1510   14.1880   -0.2470 C   0  0  1  0  0  0  0  0  0  0  0  0
   -4.3930   14.6260   -2.4500 C   0  0  0  0  0  0  0  0  0  0  0  0
   -3.8090   15.1200    1.7270 C   0  0  0  0  0  0  0  0  0  0  0  0
   -5.2960   12.6730   -0.5570 C   0  0  0  0  0  0  0  0  0  0  0  0
   -5.0540   14.3410    1.2900 C   0  0  0  0  0  0  0  0  0  0  0  0
   -6.2830   14.9600   -0.9440 C   0  0  0  0  0  0  0  0  0  0  0  0
   -5.9280   14.7560   -2.4210 C   0  0  0  0  0  0  0  0  0  0  0  0
   -4.7030   12.1110   -1.4900 O   0  0  0  0  0  0  0  0  0  0  0  0
   -6.2330   11.8770    0.3230 C   0  0  0  0  0  0  0  0  0  0  0  0
  1  2  1  0
  2  3  2  0
  2  4  1  0
  3  5  1  0
  3  6  1  0
  4  7  2  0
  6  8  2  0
  7  8  1  0
  8  9  1  0
  9 10  1  0
 10 11  1  0
 10 12  2  3
 12 13  1  0
 13 14  1  0
 14 15  2  0
 14 16  1  0
 15 17  1  0
 16 18  2  0
 18 19  1  0
 17 20  2  0
 18 20  1  0
 19 21  1  0
 19 22  1  6
 20 23  1  0
 21 24  1  1
 21 25  1  0
 23 25  1  0
 21 26  1  0
 22 27  1  0
 26 27  1  0
 24 28  2  0
 24 29  1  0
M  END
