mac-x0282-mac-x0302
     RDKit          3D

 17 18  0  0  0  0  0  0  0  0999 V2000
    1.1340   14.2920   -4.0830 O   0  0  0  0  0  0  0  0  0  0  0  0
    0.1960   13.8940   -3.1900 C   0  0  0  0  0  0  0  0  0  0  0  0
    0.5280   13.4570   -2.0960 O   0  0  0  0  0  0  0  0  0  0  0  0
   -1.2530   14.0380   -3.6890 C   0  0  0  0  0  0  0  0  0  0  0  0
   -1.9680   15.1210   -3.0490 N   0  0  0  0  0  0  0  0  0  0  0  0
   -3.2890   15.0740   -2.6110 C   0  0  0  0  0  0  0  0  0  0  0  0
   -4.2350   15.1550   -3.3790 O   0  0  0  0  0  0  0  0  0  0  0  0
   -3.3880   14.9340   -1.1590 C   0  0  0  0  0  0  0  0  0  0  0  0
   -4.4510   14.9020   -0.2280 C   0  0  0  0  0  0  0  0  0  0  0  0
   -2.2000   14.7900   -0.4340 C   0  0  0  0  0  0  0  0  0  0  0  0
   -5.7900   14.9970   -0.4010 O   0  0  0  0  0  0  0  0  0  0  0  0
   -2.4960   14.6700    0.8960 C   0  0  0  0  0  0  0  0  0  0  0  0
   -3.8630   14.7330    1.0280 N   0  0  0  0  0  0  0  0  0  0  0  0
   -0.8570   14.7530   -0.8170 C   0  0  0  0  0  0  0  0  0  0  0  0
    0.0930   14.5950    0.1540 C   0  0  0  0  0  0  0  0  0  0  0  0
   -1.6080   14.5140    1.8900 N   0  0  0  0  0  0  0  0  0  0  0  0
   -0.3240   14.4790    1.4620 C   0  0  0  0  0  0  0  0  0  0  0  0
  1  2  1  0
  2  3  2  0
  2  4  1  0
  4  5  1  0
  5  6  1  0
  6  7  2  0
  6  8  1  0
  8  9  2  0
  8 10  1  0
  9 11  1  0
 10 12  2  0
  9 13  1  0
 12 13  1  0
 10 14  1  0
 14 15  2  0
 12 16  1  0
 15 17  1  0
 16 17  2  0
M  END
