mac-x0565-mac-x0188
     RDKit          3D

 16 17  0  0  0  0  0  0  0  0999 V2000
   -5.2830   15.0220    0.8960 O   0  0  0  0  0  0  0  0  0  0  0  0
   -5.7530   14.9480   -0.3610 C   0  0  0  0  0  0  0  0  0  0  0  0
   -6.9500   14.9360   -0.6150 O   0  0  0  0  0  0  0  0  0  0  0  0
   -4.7060   14.8720   -1.4190 C   0  0  0  0  0  0  0  0  0  0  0  0
   -3.3280   14.6530   -1.1110 C   0  0  0  0  0  0  0  0  0  0  0  0
   -5.1290   15.0210   -2.7480 C   0  0  0  0  0  0  0  0  0  0  0  0
   -2.4140   14.5890   -2.1840 C   0  0  0  0  0  0  0  0  0  0  0  0
   -4.2120   14.9560   -3.7890 C   0  0  0  0  0  0  0  0  0  0  0  0
   -2.8880   14.7440   -3.4840 C   0  0  0  0  0  0  0  0  0  0  0  0
   -1.0000   14.3840   -2.3160 N   0  0  0  0  0  0  0  0  0  0  0  0
    0.0710   14.3650   -1.4580 C   0  0  0  0  0  0  0  0  0  0  0  0
   -1.9160   14.6640   -4.4470 O   0  0  0  0  0  0  0  0  0  0  0  0
   -0.6820   14.7320   -3.6970 C   0  0  2  0  0  0  0  0  0  0  0  0
    0.3530   13.7980   -4.3640 C   0  0  0  0  0  0  0  0  0  0  0  0
    0.7680   15.3370   -1.2500 O   0  0  0  0  0  0  0  0  0  0  0  0
    0.4130   13.2000   -0.8440 O   0  0  0  0  0  0  0  0  0  0  0  0
  1  2  1  0
  2  3  2  0
  2  4  1  0
  4  5  2  0
  4  6  1  0
  5  7  1  0
  6  8  2  0
  7  9  2  0
  8  9  1  0
  7 10  1  0
 10 11  1  0
  9 12  1  0
 10 13  1  0
 12 13  1  0
 13 14  1  6
 11 15  2  0
 11 16  1  0
M  END
