mac-x0365-mac-x0190
     RDKit          3D

 16 17  0  0  0  0  0  0  0  0999 V2000
   -1.0100   14.7800   -0.9870 O   0  0  0  0  0  0  0  0  0  0  0  0
   -1.9230   14.7800   -1.9700 C   0  0  0  0  0  0  0  0  0  0  0  0
   -1.5690   14.8080   -3.1400 O   0  0  0  0  0  0  0  0  0  0  0  0
   -3.3430   14.7400   -1.5050 C   0  0  0  0  0  0  0  0  0  0  0  0
   -4.4000   14.6140   -2.5040 C   0  0  0  0  0  0  0  0  0  0  0  0
   -3.6470   14.8100   -0.1700 C   0  0  0  0  0  0  0  0  0  0  0  0
   -5.6790   14.8890   -2.2200 C   0  0  0  0  0  0  0  0  0  0  0  0
   -5.1090   14.7320    0.1120 C   0  0  0  0  0  0  0  0  0  0  0  0
   -6.6120   14.7510   -3.1750 F   0  0  0  0  0  0  0  0  0  0  0  0
   -6.0690   15.3460   -0.8710 C   0  0  1  0  0  0  0  0  0  0  0  0
   -5.7600   14.1990    1.1060 N   0  0  0  0  0  0  0  0  0  0  0  0
   -5.9170   16.7080   -0.8430 O   0  0  0  0  0  0  0  0  0  0  0  0
   -7.0980   14.3820    0.7820 C   0  0  0  0  0  0  0  0  0  0  0  0
   -7.3790   14.9820   -0.3330 N   0  0  0  0  0  0  0  0  0  0  0  0
   -8.2040   13.8710    1.6950 C   0  0  0  0  0  0  0  0  0  0  0  0
   -8.9680   14.9300    2.2630 O   0  0  0  0  0  0  0  0  0  0  0  0
  1  2  1  0
  2  3  2  0
  2  4  1  0
  4  5  1  0
  4  6  2  0
  5  7  2  0
  6  8  1  0
  7  9  1  0
  7 10  1  0
  8 10  1  0
  8 11  2  0
 10 12  1  6
 11 13  1  0
 10 14  1  0
 13 14  2  0
 13 15  1  0
 15 16  1  0
M  END
