mac-x0284-diamond-x1015_0_A
     RDKit          3D

 24 27  0  0  0  0  0  0  0  0999 V2000
   -4.5230   15.3330    0.4330 C   0  0  0  0  0  0  0  0  0  0  0  0
   -3.6810   15.0940   -0.7830 C   0  0  0  0  0  0  0  0  0  0  0  0
   -4.2290   15.0080   -2.0630 C   0  0  0  0  0  0  0  0  0  0  0  0
   -2.3040   14.9590   -0.6410 C   0  0  0  0  0  0  0  0  0  0  0  0
   -1.4490   14.7570   -1.7350 C   0  0  0  0  0  0  0  0  0  0  0  0
   -3.3870   14.7900   -3.1630 C   0  0  0  0  0  0  0  0  0  0  0  0
   -0.0140   14.6840   -1.4330 C   0  0  0  0  0  0  0  0  0  0  0  0
   -1.9830   14.6630   -2.9990 C   0  0  0  0  0  0  0  0  0  0  0  0
   -1.2800   14.4660   -4.1520 O   0  0  0  0  0  0  0  0  0  0  0  0
    1.0300   14.3040   -1.9820 N   0  0  0  0  0  0  0  0  0  0  0  0
    0.2470   15.1870   -0.2450 O   0  0  0  0  0  0  0  0  0  0  0  0
   -0.1660   13.5320   -4.2060 C   0  0  1  0  0  0  0  0  0  0  0  0
    1.0790   13.7230   -3.2850 C   0  0  2  0  0  0  0  0  0  0  0  0
   -0.5260   12.1380   -3.9780 N   0  0  0  0  0  0  0  0  0  0  0  0
    1.4460   12.3940   -2.9860 N   0  0  0  0  0  0  0  0  0  0  0  0
    0.3020   11.6310   -2.9560 C   0  0  0  0  0  0  0  0  0  0  0  0
   -0.8100   11.3430   -5.0940 C   0  0  0  0  0  0  0  0  0  0  0  0
    0.1360   10.6990   -2.1640 O   0  0  0  0  0  0  0  0  0  0  0  0
   -0.1570   11.5550   -6.3170 C   0  0  0  0  0  0  0  0  0  0  0  0
   -1.7470   10.3120   -5.0070 C   0  0  0  0  0  0  0  0  0  0  0  0
   -0.4360   10.7570   -7.4270 C   0  0  0  0  0  0  0  0  0  0  0  0
   -2.0310    9.5120   -6.1140 C   0  0  0  0  0  0  0  0  0  0  0  0
   -1.3740    9.7380   -7.3160 C   0  0  0  0  0  0  0  0  0  0  0  0
   -1.7320    8.7490   -8.6730 Cl  0  0  0  0  0  0  0  0  0  0  0  0
  1  2  1  0
  2  3  2  0
  2  4  1  0
  4  5  2  0
  3  6  1  0
  5  7  1  0
  5  8  1  0
  6  8  2  0
  8  9  1  0
  7 10  2  0
  7 11  1  0
 12  9  1  1
 13 10  1  1
 12 13  1  0
 12 14  1  0
 13 15  1  0
 14 16  1  0
 15 16  1  0
 14 17  1  0
 16 18  2  0
 17 19  2  0
 17 20  1  0
 19 21  1  0
 20 22  2  0
 21 23  2  0
 22 23  1  0
 23 24  1  0
M  END
