mac-x0357-mac-x0441
     RDKit          3D

 22 23  0  0  0  0  0  0  0  0999 V2000
    1.5330   12.3900   -6.1240 C   0  0  0  0  0  0  0  0  0  0  0  0
    0.0520   12.3120   -6.0170 C   0  0  1  0  0  0  0  0  0  0  0  0
   -0.6300   11.3670   -7.0440 C   0  0  2  0  0  0  0  0  0  0  0  0
   -0.3560   12.3560   -4.5010 C   0  0  2  0  0  0  0  0  0  0  0  0
   -0.3420   11.8460   -8.3570 O   0  0  0  0  0  0  0  0  0  0  0  0
    0.6050   13.2620   -3.5100 S   0  0  0  0  0  0  0  0  0  0  0  0
   -2.1470   11.5930   -6.9560 C   0  0  0  0  0  0  0  0  0  0  0  0
   -0.5470   10.9310   -4.0170 C   0  0  0  0  0  0  0  0  0  0  0  0
   -0.2860    9.8800   -7.1200 C   0  0  0  0  0  0  0  0  0  0  0  0
   -0.4190   14.3290   -3.2000 O   0  0  0  0  0  0  0  0  0  0  0  0
    1.6110   12.1510   -3.1750 O   0  0  0  0  0  0  0  0  0  0  0  0
    0.3510   13.0780   -1.7310 O   0  0  0  0  0  0  0  0  0  0  0  0
    1.7410   14.3310   -3.9480 C   0  0  0  0  0  0  0  0  0  0  0  0
   -2.6840   10.8150   -5.9380 F   0  0  0  0  0  0  0  0  0  0  0  0
   -2.3700   12.9310   -6.6050 F   0  0  0  0  0  0  0  0  0  0  0  0
   -2.7860   11.4080   -8.1420 F   0  0  0  0  0  0  0  0  0  0  0  0
   -0.4960   10.1820   -5.1890 C   0  0  0  0  0  0  0  0  0  0  0  0
   -0.5540    9.2400   -5.8510 C   0  0  0  0  0  0  0  0  0  0  0  0
   -0.7300    8.0160   -6.0010 C   0  0  0  0  0  0  0  0  0  0  0  0
   -0.1850   10.9050   -6.3460 C   0  0  0  0  0  0  0  0  0  0  0  0
   -0.2240    9.7240   -7.3700 C   0  0  0  0  0  0  0  0  0  0  0  0
   -0.4940    8.2650   -7.2420 C   0  0  0  0  0  0  0  0  0  0  0  0
  2  1  1  1
  2  3  1  0
  2  4  1  0
  3  5  1  6
  4  6  1  1
  3  7  1  0
  4  8  1  0
  3  9  1  0
  6 10  2  0
  6 11  1  0
  6 12  1  0
  6 13  1  0
  7 14  1  0
  7 15  1  0
  7 16  1  0
  8 17  1  0
  9 18  1  0
 17 18  2  0
 18 19  1  0
 17 20  1  0
 20 21  2  0
 19 22  2  0
 21 22  1  0
M  END
