mac-x0223-diamond-x0962_0_A
     RDKit          3D

 20 21  0  0  0  0  0  0  0  0999 V2000
    1.1810   18.4180   -5.8560 C   0  0  0  0  0  0  0  0  0  0  0  0
    0.0180   17.7650   -6.2840 O   0  0  0  0  0  0  0  0  0  0  0  0
   -0.4020   16.7620   -5.4780 C   0  0  0  0  0  0  0  0  0  0  0  0
   -1.6190   16.9920   -4.9000 C   0  0  0  0  0  0  0  0  0  0  0  0
    0.2710   15.5620   -5.1960 C   0  0  0  0  0  0  0  0  0  0  0  0
   -2.3130   18.1360   -5.1330 O   0  0  0  0  0  0  0  0  0  0  0  0
   -2.1620   16.0900   -4.0500 C   0  0  0  0  0  0  0  0  0  0  0  0
   -0.2680   14.5980   -4.3060 C   0  0  0  0  0  0  0  0  0  0  0  0
    0.5810   13.3540   -4.0930 C   0  0  0  0  0  0  0  0  0  0  0  0
   -1.5260   14.9300   -3.7110 C   0  0  0  0  0  0  0  0  0  0  0  0
    0.3330   12.5560   -2.8460 C   0  0  0  0  0  0  0  0  0  0  0  0
   -2.3640   14.3270   -2.7220 C   0  0  0  0  0  0  0  0  0  0  0  0
   -0.1790   11.4530   -2.7420 O   0  0  0  0  0  0  0  0  0  0  0  0
    0.7740   13.2090   -1.7530 O   0  0  0  0  0  0  0  0  0  0  0  0
   -3.0810   14.2910   -1.7460 C   0  0  0  0  0  0  0  0  0  0  0  0
   -3.8770   14.5720   -0.5920 C   0  0  0  0  0  0  0  0  0  0  0  0
   -3.3760   14.9550    0.6240 N   0  0  0  0  0  0  0  0  0  0  0  0
   -5.2410   14.5470   -0.4240 C   0  0  0  0  0  0  0  0  0  0  0  0
   -4.4400   15.1450    1.4640 C   0  0  0  0  0  0  0  0  0  0  0  0
   -5.5810   14.8970    0.8560 N   0  0  0  0  0  0  0  0  0  0  0  0
  1  2  1  0
  2  3  1  0
  3  4  2  0
  3  5  1  0
  4  6  1  0
  4  7  1  0
  5  8  2  0
  8  9  1  0
  7 10  2  0
  8 10  1  0
  9 11  1  0
 10 12  1  0
 11 13  2  0
 11 14  1  0
 12 15  3  0
 15 16  1  0
 16 17  1  0
 16 18  2  0
 17 19  1  0
 18 20  1  0
 19 20  2  0
M  END
