mac-x0385-diamond-x0465_0_A
     RDKit          3D

 24 25  0  0  0  0  0  0  0  0999 V2000
   -5.2810   15.5620   -0.7520 C   0  0  0  0  0  0  0  0  0  0  0  0
   -3.8750   15.2830   -0.3580 C   0  0  0  0  0  0  0  0  0  0  0  0
   -2.9340   14.9500   -1.2940 C   0  0  0  0  0  0  0  0  0  0  0  0
   -3.4260   15.3380    0.9510 C   0  0  0  0  0  0  0  0  0  0  0  0
   -4.3090   15.6720    1.9720 N   0  0  0  0  0  0  0  0  0  0  0  0
   -2.1540   15.0890    1.3160 N   0  0  0  0  0  0  0  0  0  0  0  0
   -1.6620   14.7000   -0.9950 N   0  0  0  0  0  0  0  0  0  0  0  0
   -1.3260   14.7850    0.3010 C   0  0  0  0  0  0  0  0  0  0  0  0
    0.0990   14.5240    0.5780 C   0  0  0  0  0  0  0  0  0  0  0  0
    0.9210   14.7620   -0.6920 C   0  0  0  0  0  0  0  0  0  0  0  0
    1.3440   13.5150   -1.4360 C   0  0  0  0  0  0  0  0  0  0  0  0
    1.0800   13.5380   -2.8270 N   0  0  0  0  0  0  0  0  0  0  0  0
    0.7970   12.5070   -3.5050 C   0  0  0  0  0  0  0  0  0  0  0  0
    0.5570   12.5180   -4.9880 C   0  0  1  0  0  0  0  0  0  0  0  0
    0.7240   11.3180   -2.8670 O   0  0  0  0  0  0  0  0  0  0  0  0
    1.7660   13.2150   -5.5520 C   0  0  0  0  0  0  0  0  0  0  0  0
    0.4930   11.2090   -5.5000 O   0  0  0  0  0  0  0  0  0  0  0  0
   -0.7170   10.6310   -5.6440 C   0  0  0  0  0  0  0  0  0  0  0  0
   -0.7770    9.6100   -6.5940 C   0  0  0  0  0  0  0  0  0  0  0  0
   -1.8650   10.9690   -4.9360 C   0  0  0  0  0  0  0  0  0  0  0  0
    0.3140    9.2640   -7.2950 F   0  0  0  0  0  0  0  0  0  0  0  0
   -1.9600    8.9290   -6.8390 C   0  0  0  0  0  0  0  0  0  0  0  0
   -3.0590   10.2880   -5.1790 C   0  0  0  0  0  0  0  0  0  0  0  0
   -3.1070    9.2690   -6.1290 C   0  0  0  0  0  0  0  0  0  0  0  0
  1  2  1  0
  2  3  2  0
  2  4  1  0
  4  5  1  0
  4  6  2  0
  3  7  1  0
  6  8  1  0
  7  8  2  0
  8  9  1  0
  9 10  1  0
 10 11  1  0
 11 12  1  0
 12 13  2  3
 13 14  1  0
 13 15  1  0
 14 16  1  6
 14 17  1  0
 17 18  1  0
 18 19  2  0
 18 20  1  0
 19 21  1  0
 19 22  1  0
 20 23  2  0
 22 24  2  0
 23 24  1  0
M  END
