mac-x0231-mac-x0412
     RDKit          3D

 27 30  0  0  0  0  0  0  0  0999 V2000
    0.5110   10.8590   -3.2970 O   0  0  0  0  0  0  0  0  0  0  0  0
    1.3000   11.9390   -3.1200 C   0  0  0  0  0  0  0  0  0  0  0  0
    1.4740   12.3780   -1.9980 O   0  0  0  0  0  0  0  0  0  0  0  0
    1.8690   12.5040   -4.3860 C   0  0  0  0  0  0  0  0  0  0  0  0
    1.4320   13.9150   -4.4270 C   0  0  0  0  0  0  0  0  0  0  0  0
    0.0100   14.1500   -4.4610 C   0  0  0  0  0  0  0  0  0  0  0  0
    2.2980   14.8510   -4.3450 N   0  0  0  0  0  0  0  0  0  0  0  0
   -0.3960   15.4650   -4.4910 C   0  0  0  0  0  0  0  0  0  0  0  0
    1.8460   16.1280   -4.3210 N   0  0  0  0  0  0  0  0  0  0  0  0
   -0.9030   13.1010   -4.4330 C   0  0  0  0  0  0  0  0  0  0  0  0
    0.5790   16.5370   -4.5400 C   0  0  0  0  0  0  0  0  0  0  0  0
   -1.7140   15.7630   -4.4550 C   0  0  0  0  0  0  0  0  0  0  0  0
   -2.2410   13.4010   -4.3960 C   0  0  0  0  0  0  0  0  0  0  0  0
    0.2590   17.7020   -4.7610 O   0  0  0  0  0  0  0  0  0  0  0  0
   -2.6100   14.7340   -4.3880 C   0  0  0  0  0  0  0  0  0  0  0  0
   -3.9720   15.1300   -4.2850 C   0  0  0  0  0  0  0  0  0  0  0  0
   -4.4720   15.0680   -2.8400 C   0  0  0  0  0  0  0  0  0  0  0  0
   -3.8250   15.1630   -1.6120 C   0  0  0  0  0  0  0  0  0  0  0  0
   -5.8750   14.8660   -2.8830 C   0  0  0  0  0  0  0  0  0  0  0  0
   -4.6170   15.0320   -0.3630 C   0  0  0  0  0  0  0  0  0  0  0  0
   -6.5540   14.5020   -1.8370 C   0  0  0  0  0  0  0  0  0  0  0  0
   -5.9260   14.2770   -0.5180 C   0  0  2  0  0  0  0  0  0  0  0  0
   -4.2830   15.5020    0.8520 C   0  0  0  0  0  0  0  0  0  0  0  0
   -6.9550   14.6580    0.5440 C   0  0  0  0  0  0  0  0  0  0  0  0
   -5.2660   15.2270    1.9330 C   0  0  0  0  0  0  0  0  0  0  0  0
   -8.1390   14.8090    0.2530 O   0  0  0  0  0  0  0  0  0  0  0  0
   -6.4920   14.8330    1.8150 N   0  0  0  0  0  0  0  0  0  0  0  0
  1  2  1  0
  2  3  2  0
  2  4  1  0
  4  5  1  0
  5  6  1  0
  5  7  2  0
  6  8  2  0
  7  9  1  0
  6 10  1  0
  8 11  1  0
  9 11  1  0
  8 12  1  0
 10 13  2  0
 11 14  2  0
 12 15  2  0
 13 15  1  0
 15 16  1  0
 16 17  1  0
 17 18  2  0
 17 19  1  0
 18 20  1  0
 19 21  2  0
 20 22  1  0
 22 21  1  6
 20 23  2  0
 22 24  1  0
 23 25  1  0
 24 26  2  0
 24 27  1  0
 25 27  2  0
M  END
