mac-x0437-mac-x0441
     RDKit          3D

 18 19  0  0  0  0  0  0  0  0999 V2000
    1.3940   13.0450   -2.5770 O   0  0  0  0  0  0  0  0  0  0  0  0
    1.0710   12.1880   -3.5680 C   0  0  0  0  0  0  0  0  0  0  0  0
    0.4690   11.1640   -3.2990 O   0  0  0  0  0  0  0  0  0  0  0  0
    1.5570   12.6570   -4.9270 C   0  0  0  0  0  0  0  0  0  0  0  0
    0.4440   13.1130   -5.8660 C   0  0  0  0  0  0  0  0  0  0  0  0
   -0.4820   12.0660   -6.3230 N   0  0  0  0  0  0  0  0  0  0  0  0
   -1.2660   11.4770   -5.3380 C   0  0  0  0  0  0  0  0  0  0  0  0
   -0.1650   10.9100   -7.2930 C   0  0  2  0  0  0  0  0  0  0  0  0
    0.1190   11.0010   -8.8590 C   0  0  0  0  0  0  0  0  0  0  0  0
   -1.8940   10.3590   -5.5710 N   0  0  0  0  0  0  0  0  0  0  0  0
   -1.4880   10.1310   -6.9770 C   0  0  2  0  0  0  0  0  0  0  0  0
    1.0010   10.0540   -7.0570 C   0  0  0  0  0  0  0  0  0  0  0  0
    0.1330    9.7160   -9.3200 F   0  0  0  0  0  0  0  0  0  0  0  0
   -0.7340   11.6440   -9.6650 F   0  0  0  0  0  0  0  0  0  0  0  0
    1.3740   11.2960   -9.2140 F   0  0  0  0  0  0  0  0  0  0  0  0
   -1.5670    8.7990   -7.6070 C   0  0  0  0  0  0  0  0  0  0  0  0
    0.8630    8.7370   -7.2940 C   0  0  0  0  0  0  0  0  0  0  0  0
   -0.3980    8.1490   -7.7490 C   0  0  0  0  0  0  0  0  0  0  0  0
  1  2  1  0
  2  3  2  0
  2  4  1  0
  4  5  1  0
  5  6  1  0
  6  7  1  0
  6  8  1  0
  8  9  1  6
  7 10  2  0
  8 11  1  0
 10 11  1  0
  8 12  1  0
  9 13  1  0
  9 14  1  0
  9 15  1  0
 11 16  1  1
 12 17  2  0
 16 18  2  0
 17 18  1  0
M  END
