mac-x0301-diamond-x0962_1_A
     RDKit          3D

 18 20  0  0  0  0  0  0  0  0999 V2000
    0.5310   14.4140   -3.0720 O   0  0  0  0  0  0  0  0  0  0  0  0
   -0.8060   14.3950   -3.2080 C   0  0  0  0  0  0  0  0  0  0  0  0
   -1.3490   14.1870   -4.2820 O   0  0  0  0  0  0  0  0  0  0  0  0
   -1.5940   14.6480   -1.9680 C   0  0  0  0  0  0  0  0  0  0  0  0
   -1.1100   14.5680   -0.6680 C   0  0  0  0  0  0  0  0  0  0  0  0
   -2.9380   14.9970   -2.1130 C   0  0  0  0  0  0  0  0  0  0  0  0
   -1.9110   14.8250    0.4340 C   0  0  0  0  0  0  0  0  0  0  0  0
   -3.7400   15.2500   -0.9880 C   0  0  0  0  0  0  0  0  0  0  0  0
    0.1450   14.2430   -0.2920 O   0  0  0  0  0  0  0  0  0  0  0  0
   -3.2200   15.1660    0.3040 C   0  0  0  0  0  0  0  0  0  0  0  0
   -1.2660   14.7030    1.6210 O   0  0  0  0  0  0  0  0  0  0  0  0
    0.0410   14.4270    1.1410 C   0  0  0  0  0  0  0  0  0  0  0  0
   -5.1620   15.6120   -1.1690 C   0  0  0  0  0  0  0  0  0  0  0  0
   -6.0350   15.0350   -0.1390 C   0  0  0  0  0  0  0  0  0  0  0  0
   -5.6860   14.8770    1.1760 N   0  0  0  0  0  0  0  0  0  0  0  0
   -7.3140   14.5610   -0.2290 C   0  0  0  0  0  0  0  0  0  0  0  0
   -6.7560   14.3250    1.8150 C   0  0  0  0  0  0  0  0  0  0  0  0
   -7.7550   14.1240    0.9870 N   0  0  0  0  0  0  0  0  0  0  0  0
  1  2  1  0
  2  3  2  0
  2  4  1  0
  4  5  2  0
  4  6  1  0
  5  7  1  0
  6  8  2  0
  5  9  1  0
  7 10  2  0
  8 10  1  0
  7 11  1  0
  9 12  1  0
 11 12  1  0
  8 13  1  0
 13 14  1  0
 14 15  1  0
 14 16  2  0
 15 17  1  0
 16 18  1  0
 17 18  2  0
M  END
