mac-x0263-mac-x0415
     RDKit          3D

 30 33  0  0  0  0  0  0  0  0999 V2000
  -11.5580   14.4180    2.5240 O   0  0  0  0  0  0  0  0  0  0  0  0
  -10.8630   15.5240    2.8450 C   0  0  0  0  0  0  0  0  0  0  0  0
  -11.2890   16.3080    3.6720 O   0  0  0  0  0  0  0  0  0  0  0  0
   -9.5710   15.6720    2.0990 C   0  0  0  0  0  0  0  0  0  0  0  0
   -8.9180   14.3450    1.7620 C   0  0  0  0  0  0  0  0  0  0  0  0
   -7.6280   14.5620    1.0610 C   0  0  0  0  0  0  0  0  0  0  0  0
   -7.5410   14.6900   -0.2950 N   0  0  0  0  0  0  0  0  0  0  0  0
   -6.4440   14.6590    1.6220 N   0  0  0  0  0  0  0  0  0  0  0  0
   -6.2260   14.8720   -0.6170 C   0  0  0  0  0  0  0  0  0  0  0  0
   -5.5580   14.8510    0.5990 C   0  0  0  0  0  0  0  0  0  0  0  0
   -5.5970   15.0420   -1.8300 C   0  0  0  0  0  0  0  0  0  0  0  0
   -4.1650   15.0150    0.6240 C   0  0  0  0  0  0  0  0  0  0  0  0
   -4.2140   15.1860   -1.8100 C   0  0  0  0  0  0  0  0  0  0  0  0
   -3.5020   15.1780   -0.5950 C   0  0  0  0  0  0  0  0  0  0  0  0
   -3.5050   15.3340   -3.1180 C   0  0  0  0  0  0  0  0  0  0  0  0
   -4.2720   14.7660   -4.3290 C   0  0  0  0  0  0  0  0  0  0  0  0
   -3.7890   15.4380   -5.4830 O   0  0  0  0  0  0  0  0  0  0  0  0
   -2.4710   15.7620   -5.3760 C   0  0  0  0  0  0  0  0  0  0  0  0
   -1.8890   17.0530   -5.7820 C   0  0  0  0  0  0  0  0  0  0  0  0
   -1.7060   14.7880   -4.8330 C   0  0  0  0  0  0  0  0  0  0  0  0
   -0.3240   15.0330   -4.6360 C   0  0  0  0  0  0  0  0  0  0  0  0
   -0.6580   17.3950   -5.3510 C   0  0  0  0  0  0  0  0  0  0  0  0
    0.7210   14.2150   -4.5460 C   0  0  0  0  0  0  0  0  0  0  0  0
    0.0510   16.4490   -4.4460 C   0  0  2  0  0  0  0  0  0  0  0  0
    0.9080   12.7550   -4.5890 C   0  0  0  0  0  0  0  0  0  0  0  0
    1.7900   15.1850   -4.3890 C   0  0  0  0  0  0  0  0  0  0  0  0
    1.4770   16.4390   -4.3740 N   0  0  0  0  0  0  0  0  0  0  0  0
    0.7300   12.1830   -3.1880 C   0  0  0  0  0  0  0  0  0  0  0  0
   -0.0000   11.0480   -3.1200 O   0  0  0  0  0  0  0  0  0  0  0  0
    1.1950   12.6940   -2.1770 O   0  0  0  0  0  0  0  0  0  0  0  0
  1  2  1  0
  2  3  2  0
  2  4  1  0
  4  5  1  0
  5  6  1  0
  6  7  1  0
  6  8  2  0
  7  9  1  0
  8 10  1  0
  9 10  2  0
  9 11  1  0
 10 12  1  0
 11 13  2  0
 12 14  2  0
 13 14  1  0
 13 15  1  0
 15 16  1  0
 16 17  1  0
 17 18  1  0
 18 19  1  0
 18 20  2  0
 20 21  1  0
 19 22  2  0
 21 23  2  0
 21 24  1  0
 24 22  1  6
 23 25  1  0
 23 26  1  0
 24 27  1  0
 26 27  2  0
 25 28  1  0
 28 29  1  0
 28 30  2  0
M  END
