mac-x0433-mac-x0116
     RDKit          3D

 26 29  0  0  0  0  0  0  0  0999 V2000
   -3.1700   15.9670   -0.4260 C   0  0  0  0  0  0  0  0  0  0  0  0
   -4.5730   15.5790   -0.7610 C   0  0  0  0  0  0  0  0  0  0  0  0
   -5.4510   15.3810    0.2500 C   0  0  0  0  0  0  0  0  0  0  0  0
   -4.9290   15.4280   -2.0460 N   0  0  0  0  0  0  0  0  0  0  0  0
   -6.1980   15.0700   -2.2800 C   0  0  0  0  0  0  0  0  0  0  0  0
   -6.7420   15.0140   -0.0820 C   0  0  0  0  0  0  0  0  0  0  0  0
   -7.6860   14.7880    1.0650 C   0  0  0  0  0  0  0  0  0  0  0  0
   -6.5600   14.9060   -3.5930 N   0  0  0  0  0  0  0  0  0  0  0  0
   -7.1420   14.8540   -1.3530 N   0  0  0  0  0  0  0  0  0  0  0  0
   -6.7260   14.5370    2.2250 C   0  0  0  0  0  0  0  0  0  0  0  0
   -5.7830   13.5110    1.6230 C   0  0  1  0  0  0  0  0  0  0  0  0
   -4.3470   13.6370    1.8100 N   0  0  0  0  0  0  0  0  0  0  0  0
   -6.5110   12.2710    1.8620 C   0  0  0  0  0  0  0  0  0  0  0  0
   -6.8700   11.6080    0.7280 O   0  0  0  0  0  0  0  0  0  0  0  0
   -6.9450   11.6250    2.9790 C   0  0  0  0  0  0  0  0  0  0  0  0
   -3.5070   13.7680    0.7070 C   0  0  0  0  0  0  0  0  0  0  0  0
   -7.6320   10.4900    2.5100 C   0  0  0  0  0  0  0  0  0  0  0  0
   -7.5550   10.5260    1.1350 C   0  0  0  0  0  0  0  0  0  0  0  0
   -3.9830   13.5000   -0.5710 N   0  0  0  0  0  0  0  0  0  0  0  0
   -2.2140   14.1440    0.7480 C   0  0  0  0  0  0  0  0  0  0  0  0
   -3.2200   13.6420   -1.7000 C   0  0  0  0  0  0  0  0  0  0  0  0
   -1.4510   14.2430   -0.5110 C   0  0  0  0  0  0  0  0  0  0  0  0
   -1.3720   14.4790    1.7580 N   0  0  0  0  0  0  0  0  0  0  0  0
   -1.9830   13.9980   -1.7420 N   0  0  0  0  0  0  0  0  0  0  0  0
   -0.2410   14.5930   -0.2660 N   0  0  0  0  0  0  0  0  0  0  0  0
   -0.2630   14.7270    1.1140 C   0  0  0  0  0  0  0  0  0  0  0  0
  1  2  1  0
  2  3  2  0
  2  4  1  0
  4  5  2  0
  3  6  1  0
  6  7  1  0
  5  8  1  0
  5  9  1  0
  6  9  2  0
  7 10  1  0
 11 10  1  1
 11 12  1  0
 11 13  1  0
 13 14  1  0
 13 15  2  0
 12 16  1  0
 15 17  1  0
 14 18  1  0
 17 18  2  0
 16 19  1  0
 16 20  2  0
 19 21  1  0
 20 22  1  0
 20 23  1  0
 21 24  2  0
 22 24  1  0
 22 25  2  0
 23 26  2  0
 25 26  1  0
M  END
