mac-x0182-mac-x0510
     RDKit          3D

 25 28  0  0  0  0  0  0  0  0999 V2000
    1.7030   11.8770   -6.9280 O   0  0  0  0  0  0  0  0  0  0  0  0
    0.7410   11.5830   -6.2660 C   0  0  0  0  0  0  0  0  0  0  0  0
    0.4110   12.1390   -5.0560 N   0  0  0  0  0  0  0  0  0  0  0  0
   -0.2290   10.5300   -6.6590 C   0  0  0  0  0  0  0  0  0  0  0  0
   -0.7420   11.2050   -4.2560 S   0  0  2  0  0  0  0  0  0  0  0  0
   -1.1110   10.2170   -5.6360 C   0  0  0  0  0  0  0  0  0  0  0  0
   -0.3070    9.8790   -7.8830 C   0  0  0  0  0  0  0  0  0  0  0  0
   -1.8880   12.1980   -4.0060 N   0  0  0  0  0  0  0  0  0  0  0  0
    0.0170   10.4240   -3.3040 O   0  0  0  0  0  0  0  0  0  0  0  0
   -2.1000    9.2610   -5.7650 C   0  0  0  0  0  0  0  0  0  0  0  0
   -1.3030    8.9040   -8.0420 C   0  0  0  0  0  0  0  0  0  0  0  0
   -1.7940   13.6480   -4.3310 C   0  0  0  0  0  0  0  0  0  0  0  0
   -2.1890    8.5980   -6.9910 C   0  0  0  0  0  0  0  0  0  0  0  0
   -1.6840   14.5530   -3.0800 C   0  0  0  0  0  0  0  0  0  0  0  0
   -3.0280   14.8980   -2.6100 N   0  0  0  0  0  0  0  0  0  0  0  0
   -3.3370   15.0470   -1.3760 C   0  0  0  0  0  0  0  0  0  0  0  0
   -2.3560   14.8960   -0.3710 C   0  0  0  0  0  0  0  0  0  0  0  0
   -4.5680   15.3570   -0.8620 N   0  0  0  0  0  0  0  0  0  0  0  0
   -4.9550   15.0730    0.4340 C   0  0  0  0  0  0  0  0  0  0  0  0
   -2.6650   14.8380    0.9560 C   0  0  0  0  0  0  0  0  0  0  0  0
   -0.9950   14.7900   -0.4280 N   0  0  0  0  0  0  0  0  0  0  0  0
   -6.1440   14.9550    0.7190 O   0  0  0  0  0  0  0  0  0  0  0  0
   -3.9620   14.9190    1.3660 N   0  0  0  0  0  0  0  0  0  0  0  0
   -1.5620   14.7000    1.7260 N   0  0  0  0  0  0  0  0  0  0  0  0
   -0.5640   14.6760    0.8660 C   0  0  0  0  0  0  0  0  0  0  0  0
  1  2  2  0
  2  3  1  0
  2  4  1  0
  5  3  1  6
  4  6  2  0
  5  6  1  0
  4  7  1  0
  5  8  2  0
  5  9  2  0
  6 10  1  0
  7 11  2  0
  8 12  1  0
 10 13  2  0
 11 13  1  0
 12 14  1  0
 14 15  1  0
 15 16  2  3
 16 17  1  0
 16 18  1  0
 18 19  1  0
 17 20  2  0
 17 21  1  0
 19 22  2  0
 19 23  1  0
 20 23  1  0
 20 24  1  0
 21 25  1  0
 24 25  2  0
M  END
