mac-x0392-mac-x0337
     RDKit          3D

 21 22  0  0  0  0  0  0  0  0999 V2000
    0.6750   14.6190   -0.3140 N   0  0  0  0  0  0  0  0  0  0  0  0
   -0.6970   14.0950   -0.1730 C   0  0  1  0  0  0  0  0  0  0  0  0
   -1.2900   14.5130    1.1990 C   0  0  0  0  0  0  0  0  0  0  0  0
   -1.6120   14.5540   -1.3560 C   0  0  2  0  0  0  0  0  0  0  0  0
   -0.8760   14.6230   -2.6950 C   0  0  0  0  0  0  0  0  0  0  0  0
   -2.3490   15.8310   -1.0590 C   0  0  0  0  0  0  0  0  0  0  0  0
   -2.6480   15.0350    1.0660 N   0  0  0  0  0  0  0  0  0  0  0  0
   -1.4190   14.6330   -3.7920 O   0  0  0  0  0  0  0  0  0  0  0  0
    0.4740   14.6810   -2.5840 O   0  0  0  0  0  0  0  0  0  0  0  0
   -3.6210   14.0560    0.7220 N   0  0  0  0  0  0  0  0  0  0  0  0
   -2.8230   15.9950    0.1700 C   0  0  0  0  0  0  0  0  0  0  0  0
   -4.3190   14.3340   -0.6200 S   0  0  2  0  0  0  0  0  0  0  0  0
   -3.9020   15.1420   -1.7500 O   0  0  0  0  0  0  0  0  0  0  0  0
   -5.6570   15.1970   -0.0910 N   0  0  0  0  0  0  0  0  0  0  0  0
   -4.7580   12.7570   -1.1730 C   0  0  0  0  0  0  0  0  0  0  0  0
   -3.9110   12.0830   -2.0510 C   0  0  0  0  0  0  0  0  0  0  0  0
   -5.9380   12.2140   -0.7140 C   0  0  0  0  0  0  0  0  0  0  0  0
   -4.2730   10.8140   -2.4770 C   0  0  0  0  0  0  0  0  0  0  0  0
   -6.2960   10.9500   -1.1420 C   0  0  0  0  0  0  0  0  0  0  0  0
   -5.4690   10.2430   -2.0220 C   0  0  0  0  0  0  0  0  0  0  0  0
   -5.8660    8.8770   -2.4640 C   0  0  0  0  0  0  0  0  0  0  0  0
  2  1  1  6
  2  3  1  0
  2  4  1  0
  4  5  1  6
  4  6  1  0
  3  7  1  0
  5  8  2  0
  5  9  1  0
  7 10  1  0
  6 11  2  0
  7 11  1  0
 10 12  2  0
 12 13  2  0
 12 14  1  1
 12 15  1  0
 15 16  2  0
 15 17  1  0
 16 18  1  0
 17 19  2  0
 18 20  2  0
 19 20  1  0
 20 21  1  0
M  END
