mac-x0328-diamond-x0900_0_A
     RDKit          3D

 10 10  0  0  0  0  0  0  0  0999 V2000
   -1.8680   14.7890   -3.8360 O   0  0  0  0  0  0  0  0  0  0  0  0
   -1.9180   14.7800   -2.4870 C   0  0  0  0  0  0  0  0  0  0  0  0
   -0.9350   14.6700   -1.7780 O   0  0  0  0  0  0  0  0  0  0  0  0
   -3.2910   14.9230   -1.9430 C   0  0  0  0  0  0  0  0  0  0  0  0
   -3.4640   14.8570   -0.5520 C   0  0  0  0  0  0  0  0  0  0  0  0
   -4.3980   15.1160   -2.7770 C   0  0  0  0  0  0  0  0  0  0  0  0
   -4.7390   14.9790    0.0010 C   0  0  0  0  0  0  0  0  0  0  0  0
   -5.6730   15.2360   -2.2180 C   0  0  0  0  0  0  0  0  0  0  0  0
   -5.8340   15.1630   -0.8400 C   0  0  0  0  0  0  0  0  0  0  0  0
   -7.0980   15.2770   -0.3420 O   0  0  0  0  0  0  0  0  0  0  0  0
  1  2  1  0
  2  3  2  0
  2  4  1  0
  4  5  2  0
  4  6  1  0
  5  7  1  0
  6  8  2  0
  7  9  2  0
  8  9  1  0
  9 10  1  0
M  END
