mac-x0305-diamond-x0962_1_A
     RDKit          3D

 16 17  0  0  0  0  0  0  0  0999 V2000
    0.2320   12.7410   -0.9100 O   0  0  0  0  0  0  0  0  0  0  0  0
   -0.0260   13.9790   -1.4060 C   0  0  0  0  0  0  0  0  0  0  0  0
    0.7500   14.5650   -2.1320 O   0  0  0  0  0  0  0  0  0  0  0  0
   -1.3710   14.4650   -0.9850 C   0  0  0  0  0  0  0  0  0  0  0  0
   -1.8340   14.7410    0.3280 C   0  0  0  0  0  0  0  0  0  0  0  0
   -2.1170   14.6140   -2.1220 N   0  0  0  0  0  0  0  0  0  0  0  0
   -1.0870   14.5970    1.4800 O   0  0  0  0  0  0  0  0  0  0  0  0
   -3.1520   15.1940    0.4160 C   0  0  0  0  0  0  0  0  0  0  0  0
   -3.3550   15.0480   -1.9750 C   0  0  0  0  0  0  0  0  0  0  0  0
   -3.9080   15.3450   -0.7660 C   0  0  0  0  0  0  0  0  0  0  0  0
   -5.2970   15.8090   -0.8060 C   0  0  0  0  0  0  0  0  0  0  0  0
   -6.1520   15.0610    0.0950 C   0  0  0  0  0  0  0  0  0  0  0  0
   -5.8270   14.7960    1.3970 N   0  0  0  0  0  0  0  0  0  0  0  0
   -7.3800   14.5000   -0.0990 C   0  0  0  0  0  0  0  0  0  0  0  0
   -6.8630   14.0980    1.9280 C   0  0  0  0  0  0  0  0  0  0  0  0
   -7.8150   13.9050    1.0440 N   0  0  0  0  0  0  0  0  0  0  0  0
  1  2  1  0
  2  3  2  0
  2  4  1  0
  4  5  2  0
  4  6  1  0
  5  7  1  0
  5  8  1  0
  6  9  2  0
  8 10  2  0
  9 10  1  0
 10 11  1  0
 11 12  1  0
 12 13  1  0
 12 14  2  0
 13 15  1  0
 14 16  1  0
 15 16  2  0
M  END
