mac-x0306-diamond-x0910_0_A
     RDKit          3D

 16 18  0  0  0  0  0  0  0  0999 V2000
   -8.8050   15.0220    1.2620 C   0  0  0  0  0  0  0  0  0  0  0  0
   -7.9350   14.8250    2.3010 C   0  0  0  0  0  0  0  0  0  0  0  0
   -6.7360   14.5410    1.7190 N   0  0  0  0  0  0  0  0  0  0  0  0
   -8.1710   14.8660    0.0620 N   0  0  0  0  0  0  0  0  0  0  0  0
   -6.9180   14.5750    0.3420 C   0  0  0  0  0  0  0  0  0  0  0  0
   -5.8330   14.2950   -0.6680 C   0  0  0  0  0  0  0  0  0  0  0  0
   -5.2240   15.4260   -1.4620 C   0  0  0  0  0  0  0  0  0  0  0  0
   -4.7770   13.3780   -0.1510 C   0  0  0  0  0  0  0  0  0  0  0  0
   -3.8960   15.4530   -1.7280 C   0  0  0  0  0  0  0  0  0  0  0  0
   -3.5160   13.5240   -0.4870 C   0  0  0  0  0  0  0  0  0  0  0  0
   -2.9700   14.4870   -1.2910 N   0  0  0  0  0  0  0  0  0  0  0  0
   -1.8090   14.7290   -0.6220 C   0  0  0  0  0  0  0  0  0  0  0  0
   -1.8560   14.8840    0.7370 N   0  0  0  0  0  0  0  0  0  0  0  0
   -0.5510   14.8390   -1.0050 N   0  0  0  0  0  0  0  0  0  0  0  0
   -0.6500   15.0910    1.2590 N   0  0  0  0  0  0  0  0  0  0  0  0
    0.1110   15.0590    0.1710 C   0  0  0  0  0  0  0  0  0  0  0  0
  1  2  2  0
  2  3  1  0
  1  4  1  0
  3  5  1  0
  4  5  2  0
  5  6  1  0
  6  7  1  0
  6  8  1  0
  7  9  2  0
  8 10  2  0
  9 11  1  0
 10 11  1  0
 11 12  1  0
 12 13  1  0
 12 14  2  0
 13 15  1  0
 14 16  1  0
 15 16  2  0
M  END
