mac-x0439-mac-x0357
     RDKit          3D

 22 24  0  0  0  0  0  0  0  0999 V2000
   -3.0580   16.1380   -5.7010 Cl  0  0  0  0  0  0  0  0  0  0  0  0
   -1.5790   17.0170   -5.6350 C   0  0  0  0  0  0  0  0  0  0  0  0
   -0.6080   16.7690   -4.5910 C   0  0  1  0  0  0  0  0  0  0  0  0
   -1.2670   17.9750   -6.5270 C   0  0  0  0  0  0  0  0  0  0  0  0
   -0.5870   15.5780   -3.7830 C   0  0  0  0  0  0  0  0  0  0  0  0
    0.7320   17.0480   -4.8850 C   0  0  0  0  0  0  0  0  0  0  0  0
   -0.0050   18.6920   -6.4960 C   0  0  0  0  0  0  0  0  0  0  0  0
    0.6930   15.2110   -3.5900 C   0  0  0  0  0  0  0  0  0  0  0  0
    1.4820   16.1680   -4.2910 N   0  0  0  0  0  0  0  0  0  0  0  0
    0.9860   18.2210   -5.6940 C   0  0  0  0  0  0  0  0  0  0  0  0
    1.0040   13.7540   -2.6890 S   0  0  0  0  0  0  0  0  0  0  0  0
    2.3540   13.5600   -2.8810 O   0  0  0  0  0  0  0  0  0  0  0  0
   -0.5620   13.7390   -2.2990 O   0  0  0  0  0  0  0  0  0  0  0  0
    0.9700   13.6450   -1.1740 O   0  0  0  0  0  0  0  0  0  0  0  0
    0.3870   12.6410   -3.9410 C   0  0  0  0  0  0  0  0  0  0  0  0
    1.2150   12.4650   -4.9660 C   0  0  0  0  0  0  0  0  0  0  0  0
   -0.8540   12.0030   -3.9480 C   0  0  0  0  0  0  0  0  0  0  0  0
    2.5120   13.0670   -5.0090 C   0  0  0  0  0  0  0  0  0  0  0  0
   -1.2580   11.1990   -5.0050 C   0  0  0  0  0  0  0  0  0  0  0  0
    0.8240   11.6880   -6.0270 C   0  0  0  0  0  0  0  0  0  0  0  0
    1.6400   11.5030   -7.1300 O   0  0  0  0  0  0  0  0  0  0  0  0
   -0.4140   11.0390   -6.0700 C   0  0  0  0  0  0  0  0  0  0  0  0
  1  2  1  0
  2  3  1  0
  2  4  2  0
  3  5  1  6
  3  6  1  0
  4  7  1  0
  5  8  2  0
  6  9  2  0
  8  9  1  0
  6 10  1  0
  7 10  2  0
  8 11  1  0
 11 12  1  0
 11 13  2  0
 11 14  1  0
 11 15  1  0
 15 16  2  0
 15 17  1  0
 16 18  1  0
 17 19  2  0
 16 20  1  0
 20 21  1  0
 19 22  1  0
 20 22  2  0
M  END
