mac-x0179-mac-x0584
     RDKit          3D

 33 38  0  0  0  0  0  0  0  0999 V2000
    2.3200   11.0520   -3.9200 O   0  0  0  0  0  0  0  0  0  0  0  0
    1.6920   12.2730   -3.8560 C   0  0  0  0  0  0  0  0  0  0  0  0
    2.7270   13.0930   -3.4050 O   0  0  0  0  0  0  0  0  0  0  0  0
    1.0750   12.8930   -5.1330 C   0  0  0  0  0  0  0  0  0  0  0  0
    0.7370   12.2150   -2.7620 C   0  0  2  0  0  0  0  0  0  0  0  0
    0.1270   12.1180   -5.9240 N   0  0  0  0  0  0  0  0  0  0  0  0
   -0.3480   11.1200   -2.7720 C   0  0  0  0  0  0  0  0  0  0  0  0
   -0.3470   13.3020   -2.5920 C   0  0  2  0  0  0  0  0  0  0  0  0
    0.6580   11.4430   -6.9340 C   0  0  0  0  0  0  0  0  0  0  0  0
   -1.0170   11.4550   -5.5110 C   0  0  0  0  0  0  0  0  0  0  0  0
   -1.4330   12.2120   -2.7040 C   0  0  0  0  0  0  0  0  0  0  0  0
   -0.3880   14.6540   -3.3260 C   0  0  1  0  0  0  0  0  0  0  0  0
    1.7480   11.5590   -7.3350 O   0  0  0  0  0  0  0  0  0  0  0  0
   -1.6860   11.6120   -4.5180 O   0  0  0  0  0  0  0  0  0  0  0  0
   -0.2810   10.4790   -7.4320 C   0  0  0  0  0  0  0  0  0  0  0  0
   -1.3300   10.4630   -6.5380 C   0  0  0  0  0  0  0  0  0  0  0  0
   -0.8230   14.6650   -4.8090 C   0  0  0  0  0  0  0  0  0  0  0  0
   -1.4010   15.4510   -2.6300 N   0  0  0  0  0  0  0  0  0  0  0  0
   -0.2250    9.6680   -8.5410 C   0  0  0  0  0  0  0  0  0  0  0  0
   -2.4020    9.6100   -6.7030 C   0  0  0  0  0  0  0  0  0  0  0  0
   -2.6040   15.4070   -3.4600 C   0  0  0  0  0  0  0  0  0  0  0  0
   -2.0550   15.5470   -4.8620 C   0  0  0  0  0  0  0  0  0  0  0  0
   -1.4860   15.3340   -1.2530 C   0  0  0  0  0  0  0  0  0  0  0  0
   -1.2940    8.7940   -8.7340 C   0  0  0  0  0  0  0  0  0  0  0  0
   -2.3740    8.7650   -7.8200 C   0  0  0  0  0  0  0  0  0  0  0  0
   -0.3540   15.1780   -0.4790 N   0  0  0  0  0  0  0  0  0  0  0  0
   -2.6290   15.3520   -0.5710 C   0  0  0  0  0  0  0  0  0  0  0  0
   -0.4110   14.9960    0.8680 C   0  0  0  0  0  0  0  0  0  0  0  0
   -2.6140   15.1930    0.8980 C   0  0  0  0  0  0  0  0  0  0  0  0
   -4.0120   15.4930   -0.8710 C   0  0  0  0  0  0  0  0  0  0  0  0
   -1.4690   14.9830    1.6000 N   0  0  0  0  0  0  0  0  0  0  0  0
   -3.8010   15.2730    1.4090 N   0  0  0  0  0  0  0  0  0  0  0  0
   -4.6270   15.4450    0.3140 C   0  0  0  0  0  0  0  0  0  0  0  0
  2  1  1  0
  2  3  1  0
  2  4  1  0
  5  2  1  6
  4  6  1  0
  5  7  1  0
  5  8  1  0
  6  9  1  0
  6 10  1  0
  7 11  1  0
  8 11  1  6
  8 12  1  0
  9 13  2  0
 10 14  2  0
  9 15  1  0
 10 16  1  0
 15 16  2  0
 12 17  1  6
 12 18  1  0
 15 19  1  0
 16 20  1  0
 18 21  1  0
 17 22  1  0
 21 22  1  0
 18 23  1  0
 19 24  2  0
 20 25  2  0
 24 25  1  0
 23 26  1  0
 23 27  2  0
 26 28  1  0
 27 29  1  0
 27 30  1  0
 28 31  2  0
 29 31  1  0
 29 32  2  0
 30 33  2  0
 32 33  1  0
M  END
