mac-x0527-mac-x0365
     RDKit          3D

 19 20  0  0  0  0  0  0  0  0999 V2000
   -3.7270   15.1340   -3.7370 O   0  0  0  0  0  0  0  0  0  0  0  0
   -3.1060   14.9990   -2.6730 C   0  0  0  0  0  0  0  0  0  0  0  0
   -1.7720   14.6170   -2.7430 N   0  0  0  0  0  0  0  0  0  0  0  0
   -3.8180   15.2670   -1.3500 C   0  0  1  0  0  0  0  0  0  0  0  0
   -0.9000   14.6330   -3.9180 C   0  0  0  0  0  0  0  0  0  0  0  0
   -1.0160   14.8170   -1.5470 O   0  0  0  0  0  0  0  0  0  0  0  0
   -5.2510   14.6970   -1.3410 C   0  0  2  0  0  0  0  0  0  0  0  0
   -3.0330   14.8660   -0.1420 N   0  0  0  0  0  0  0  0  0  0  0  0
   -6.0230   15.2900   -2.3040 F   0  0  0  0  0  0  0  0  0  0  0  0
   -0.8600   13.2920   -4.6100 C   0  0  0  0  0  0  0  0  0  0  0  0
   -5.8470   15.0210   -0.0300 N   0  0  0  0  0  0  0  0  0  0  0  0
   -3.7240   14.9090    1.0610 C   0  0  0  0  0  0  0  0  0  0  0  0
   -7.2170   14.7910    0.0690 O   0  0  0  0  0  0  0  0  0  0  0  0
   -1.8050   12.2930   -4.3000 C   0  0  0  0  0  0  0  0  0  0  0  0
    0.1200   13.0160   -5.5730 C   0  0  0  0  0  0  0  0  0  0  0  0
   -5.0600   14.9810    1.1090 C   0  0  0  0  0  0  0  0  0  0  0  0
   -1.7640   11.0550   -4.9400 C   0  0  0  0  0  0  0  0  0  0  0  0
    0.1600   11.7780   -6.2100 C   0  0  0  0  0  0  0  0  0  0  0  0
   -0.7830   10.7970   -5.8930 C   0  0  0  0  0  0  0  0  0  0  0  0
  1  2  2  0
  2  3  1  0
  4  2  1  6
  3  5  1  0
  3  6  1  0
  4  7  1  0
  4  8  1  0
  7  9  1  6
  5 10  1  0
  7 11  1  0
  8 12  1  0
 11 13  1  0
 10 14  2  0
 10 15  1  0
 11 16  1  0
 12 16  2  0
 14 17  1  0
 15 18  2  0
 17 19  2  0
 18 19  1  0
M  END
