mac-x0433-mac-x0188
     RDKit          3D

 22 24  0  0  0  0  0  0  0  0999 V2000
   -3.3140   16.0840    0.5490 C   0  0  0  0  0  0  0  0  0  0  0  0
   -4.2670   15.0710   -0.0730 C   0  0  1  0  0  0  0  0  0  0  0  0
   -5.4600   14.8930    0.8170 C   0  0  0  0  0  0  0  0  0  0  0  0
   -4.6660   15.4360   -1.4730 N   0  0  0  0  0  0  0  0  0  0  0  0
   -3.4110   13.8430   -0.1130 C   0  0  0  0  0  0  0  0  0  0  0  0
   -5.9750   15.1020   -1.8060 C   0  0  0  0  0  0  0  0  0  0  0  0
   -6.7000   14.7630    0.3180 C   0  0  0  0  0  0  0  0  0  0  0  0
   -3.7060   15.2320   -2.4730 C   0  0  0  0  0  0  0  0  0  0  0  0
   -2.7020   13.5020   -1.1930 C   0  0  0  0  0  0  0  0  0  0  0  0
   -7.8980   14.5840    1.1990 C   0  0  0  0  0  0  0  0  0  0  0  0
   -6.2490   15.0760   -3.1410 N   0  0  0  0  0  0  0  0  0  0  0  0
   -6.9540   14.7850   -1.0170 N   0  0  0  0  0  0  0  0  0  0  0  0
   -2.7370   14.3080   -2.4040 C   0  0  0  0  0  0  0  0  0  0  0  0
   -1.7610   14.0470   -3.4260 C   0  0  0  0  0  0  0  0  0  0  0  0
   -2.0910   13.9670   -4.7260 N   0  0  0  0  0  0  0  0  0  0  0  0
   -0.3670   13.8310   -3.2410 C   0  0  0  0  0  0  0  0  0  0  0  0
    0.4700   13.8140   -2.0610 C   0  0  0  0  0  0  0  0  0  0  0  0
    0.1030   13.6130   -4.5240 C   0  0  0  0  0  0  0  0  0  0  0  0
   -0.9250   13.6960   -5.4070 O   0  0  0  0  0  0  0  0  0  0  0  0
    1.4370   13.3230   -5.0890 C   0  0  0  0  0  0  0  0  0  0  0  0
    1.0110   14.8220   -1.6280 O   0  0  0  0  0  0  0  0  0  0  0  0
    0.6320   12.6020   -1.4570 O   0  0  0  0  0  0  0  0  0  0  0  0
  2  1  1  1
  2  3  1  0
  2  4  1  0
  2  5  1  0
  4  6  1  0
  3  7  2  0
  4  8  1  0
  5  9  2  0
  7 10  1  0
  6 11  1  0
  6 12  2  0
  7 12  1  0
  8 13  2  0
  9 13  1  0
 13 14  1  0
 14 15  2  0
 14 16  1  0
 16 17  1  0
 16 18  2  0
 15 19  1  0
 18 19  1  0
 18 20  1  0
 17 21  2  0
 17 22  1  0
M  END
