mac-x0204-mac-x0396
     RDKit          3D

 21 22  0  0  0  0  0  0  0  0999 V2000
    0.9910   12.9770   -2.7950 O   0  0  0  0  0  0  0  0  0  0  0  0
    0.0110   13.9440   -2.4730 C   0  0  0  0  0  0  0  0  0  0  0  0
    0.7350   15.1580   -2.3350 O   0  0  0  0  0  0  0  0  0  0  0  0
   -0.5960   13.5080   -1.1260 C   0  0  0  0  0  0  0  0  0  0  0  0
   -1.0020   14.0380   -3.6060 C   0  0  0  0  0  0  0  0  0  0  0  0
   -1.2180   14.6430   -0.3270 C   0  0  0  0  0  0  0  0  0  0  0  0
   -1.3390   15.2440   -4.2480 C   0  0  0  0  0  0  0  0  0  0  0  0
   -1.6550   12.8870   -4.0550 C   0  0  0  0  0  0  0  0  0  0  0  0
   -2.6440   14.7260   -0.6950 N   0  0  0  0  0  0  0  0  0  0  0  0
   -2.2810   15.2430   -5.2720 C   0  0  0  0  0  0  0  0  0  0  0  0
   -2.5720   12.8590   -5.0520 N   0  0  0  0  0  0  0  0  0  0  0  0
   -2.6370   16.3920   -5.9180 O   0  0  0  0  0  0  0  0  0  0  0  0
   -3.5500   14.7900    0.2240 C   0  0  0  0  0  0  0  0  0  0  0  0
   -2.8670   14.0420   -5.6380 C   0  0  0  0  0  0  0  0  0  0  0  0
   -3.0850   14.7980    1.5180 N   0  0  0  0  0  0  0  0  0  0  0  0
   -5.0240   14.8160    0.0250 C   0  0  0  0  0  0  0  0  0  0  0  0
   -5.6310   14.9670   -1.2110 C   0  0  0  0  0  0  0  0  0  0  0  0
   -5.8440   14.6750    1.1320 C   0  0  0  0  0  0  0  0  0  0  0  0
   -6.9820   14.9690   -1.3770 N   0  0  0  0  0  0  0  0  0  0  0  0
   -7.2230   14.6700    1.0000 C   0  0  0  0  0  0  0  0  0  0  0  0
   -7.7440   14.8220   -0.2690 C   0  0  0  0  0  0  0  0  0  0  0  0
  2  1  1  0
  2  3  1  0
  2  4  1  0
  2  5  1  0
  4  6  1  0
  5  7  2  0
  5  8  1  0
  6  9  1  0
  7 10  1  0
  8 11  2  0
 10 12  1  0
  9 13  2  3
 10 14  2  0
 11 14  1  0
 13 15  1  0
 13 16  1  0
 16 17  2  0
 16 18  1  0
 17 19  1  0
 18 20  2  0
 19 21  2  0
 20 21  1  0
M  END
