mac-x0392-mac-x0224
     RDKit          3D

 12 12  0  0  0  0  0  0  0  0999 V2000
    0.3720   13.9810   -0.2940 N   0  0  0  0  0  0  0  0  0  0  0  0
   -0.7150   14.9390   -0.0610 C   0  0  2  0  0  0  0  0  0  0  0  0
   -1.7720   14.4020    0.9250 C   0  0  0  0  0  0  0  0  0  0  0  0
   -1.3260   15.4790   -1.3910 C   0  0  1  0  0  0  0  0  0  0  0  0
   -0.8940   14.6810   -2.6120 C   0  0  0  0  0  0  0  0  0  0  0  0
   -2.8320   15.6350   -1.4100 C   0  0  0  0  0  0  0  0  0  0  0  0
   -3.0070   15.1890    0.8920 N   0  0  0  0  0  0  0  0  0  0  0  0
   -1.6730   14.3310   -3.4900 O   0  0  0  0  0  0  0  0  0  0  0  0
    0.4190   14.3800   -2.6980 O   0  0  0  0  0  0  0  0  0  0  0  0
   -3.5590   15.4940   -0.3180 C   0  0  0  0  0  0  0  0  0  0  0  0
   -3.8940   14.8320    1.9740 C   0  0  0  0  0  0  0  0  0  0  0  0
   -5.3340   14.8070    1.4950 C   0  0  0  0  0  0  0  0  0  0  0  0
  2  1  1  6
  2  3  1  0
  2  4  1  0
  4  5  1  6
  4  6  1  0
  3  7  1  0
  5  8  2  0
  5  9  1  0
  6 10  2  0
  7 10  1  0
  7 11  1  0
 11 12  1  0
M  END
