mac-x0282-mac-x0212
     RDKit          3D

 17 18  0  0  0  0  0  0  0  0999 V2000
   -5.9490   12.8610    0.9470 C   0  0  0  0  0  0  0  0  0  0  0  0
   -6.8410   14.3320    0.4880 S   0  0  0  0  0  0  0  0  0  0  0  0
   -7.1800   15.0220    1.7140 O   0  0  0  0  0  0  0  0  0  0  0  0
   -7.8930   13.9610   -0.4290 O   0  0  0  0  0  0  0  0  0  0  0  0
   -5.7030   15.2310   -0.4410 N   0  0  0  0  0  0  0  0  0  0  0  0
   -4.2420   15.0080   -0.2600 C   0  0  0  0  0  0  0  0  0  0  0  0
   -3.1920   14.8200   -1.2240 C   0  0  0  0  0  0  0  0  0  0  0  0
   -3.6660   14.9440    0.9870 N   0  0  0  0  0  0  0  0  0  0  0  0
   -3.0120   14.7420   -2.6830 C   0  0  0  0  0  0  0  0  0  0  0  0
   -2.0390   14.6720   -0.4760 C   0  0  0  0  0  0  0  0  0  0  0  0
   -2.3330   14.7380    0.8600 C   0  0  0  0  0  0  0  0  0  0  0  0
   -1.9590   14.2940   -3.1690 O   0  0  0  0  0  0  0  0  0  0  0  0
   -3.9660   15.1470   -3.5210 O   0  0  0  0  0  0  0  0  0  0  0  0
   -0.7290   14.4810   -0.8700 C   0  0  0  0  0  0  0  0  0  0  0  0
   -1.4650   14.6160    1.8600 N   0  0  0  0  0  0  0  0  0  0  0  0
    0.2060   14.3660    0.1060 C   0  0  0  0  0  0  0  0  0  0  0  0
   -0.2040   14.4360    1.4310 C   0  0  0  0  0  0  0  0  0  0  0  0
  1  2  1  0
  2  3  2  0
  2  4  2  0
  2  5  1  0
  5  6  1  0
  6  7  2  0
  6  8  1  0
  7  9  1  0
  7 10  1  0
  8 11  1  0
 10 11  2  0
  9 12  2  0
  9 13  1  0
 10 14  1  0
 11 15  1  0
 14 16  2  0
 15 17  2  0
 16 17  1  0
M  END
