mac-x0213-mac-x0433
     RDKit          3D

 24 26  0  0  0  0  0  0  0  0999 V2000
    0.3560   11.7990   -3.6870 O   0  0  0  0  0  0  0  0  0  0  0  0
    0.2090   12.7560   -2.7640 C   0  0  0  0  0  0  0  0  0  0  0  0
    0.3480   12.5000   -1.5060 N   0  0  0  0  0  0  0  0  0  0  0  0
   -0.1480   14.1600   -3.2330 C   0  0  0  0  0  0  0  0  0  0  0  0
    0.1590   13.5890   -0.5670 C   0  0  0  0  0  0  0  0  0  0  0  0
   -1.3760   14.1970   -4.1490 C   0  0  0  0  0  0  0  0  0  0  0  0
    0.9510   14.9310   -3.9890 C   0  0  0  0  0  0  0  0  0  0  0  0
   -1.2530   13.5770   -0.0280 C   0  0  0  0  0  0  0  0  0  0  0  0
   -1.2400   15.5900   -4.6800 C   0  0  0  0  0  0  0  0  0  0  0  0
    0.0950   16.0160   -4.5890 C   0  0  0  0  0  0  0  0  0  0  0  0
   -1.9170   14.9160   -0.1130 C   0  0  0  0  0  0  0  0  0  0  0  0
   -2.2270   16.4110   -5.2000 C   0  0  0  0  0  0  0  0  0  0  0  0
    0.4580   17.2800   -5.0210 C   0  0  0  0  0  0  0  0  0  0  0  0
   -3.1600   15.1760    0.7300 C   0  0  0  0  0  0  0  0  0  0  0  0
   -1.8600   17.6830   -5.6380 C   0  0  0  0  0  0  0  0  0  0  0  0
   -0.5270   18.1130   -5.5480 C   0  0  0  0  0  0  0  0  0  0  0  0
   -4.5050   15.0520    0.0730 C   0  0  0  0  0  0  0  0  0  0  0  0
   -4.6000   15.1460   -1.2750 N   0  0  0  0  0  0  0  0  0  0  0  0
   -5.6120   14.8430    0.8570 C   0  0  0  0  0  0  0  0  0  0  0  0
   -5.8260   15.0280   -1.8060 C   0  0  0  0  0  0  0  0  0  0  0  0
   -6.8240   14.7370    0.2160 C   0  0  0  0  0  0  0  0  0  0  0  0
   -8.0710   14.5130    1.0120 C   0  0  0  0  0  0  0  0  0  0  0  0
   -5.9490   15.1080   -3.1770 N   0  0  0  0  0  0  0  0  0  0  0  0
   -6.9470   14.8290   -1.1180 N   0  0  0  0  0  0  0  0  0  0  0  0
  1  2  1  0
  2  3  2  3
  2  4  1  0
  3  5  1  0
  4  6  1  0
  4  7  1  0
  5  8  1  0
  6  9  1  0
  7 10  1  0
  9 10  2  0
  8 11  1  0
  9 12  1  0
 10 13  1  0
 11 14  1  0
 12 15  2  0
 13 16  2  0
 15 16  1  0
 14 17  1  0
 17 18  2  0
 17 19  1  0
 18 20  1  0
 19 21  2  0
 21 22  1  0
 20 23  1  0
 20 24  2  0
 21 24  1  0
M  END
