mac-x0568-mac-x0193
     RDKit          3D

 27 28  0  0  0  0  0  0  0  0999 V2000
   -8.6500   14.4790    1.3460 C   0  0  0  0  0  0  0  0  0  0  0  0
   -7.3080   14.6440    0.7070 C   0  0  0  0  0  0  0  0  0  0  0  0
   -6.1640   14.6430    1.4920 C   0  0  0  0  0  0  0  0  0  0  0  0
   -7.2710   14.7960   -0.6340 N   0  0  0  0  0  0  0  0  0  0  0  0
   -6.0540   14.9500   -1.2060 C   0  0  0  0  0  0  0  0  0  0  0  0
   -4.9180   14.8000    0.8820 C   0  0  0  0  0  0  0  0  0  0  0  0
   -4.8630   14.9560   -0.5010 C   0  0  0  0  0  0  0  0  0  0  0  0
   -3.5720   15.1160   -1.1920 C   0  0  0  0  0  0  0  0  0  0  0  0
   -3.5600   15.4080   -2.3810 O   0  0  0  0  0  0  0  0  0  0  0  0
   -2.4420   14.9040   -0.4400 N   0  0  0  0  0  0  0  0  0  0  0  0
   -1.1700   14.6670   -1.0830 C   0  0  0  0  0  0  0  0  0  0  0  0
   -0.8490   13.1950   -1.0400 C   0  0  0  0  0  0  0  0  0  0  0  0
    0.6070   12.9580   -1.3810 C   0  0  0  0  0  0  0  0  0  0  0  0
    0.8840   13.3150   -2.7430 N   0  0  0  0  0  0  0  0  0  0  0  0
    0.8290   12.4130   -3.6330 C   0  0  0  0  0  0  0  0  0  0  0  0
    0.5080   11.1670   -3.2100 O   0  0  0  0  0  0  0  0  0  0  0  0
    1.0770   12.5730   -5.1150 C   0  0  0  0  0  0  0  0  0  0  0  0
    0.3810   11.5820   -5.9030 N   0  0  0  0  0  0  0  0  0  0  0  0
    1.0140   11.2660   -7.0700 C   0  0  0  0  0  0  0  0  0  0  0  0
    2.1290   11.6460   -7.3350 O   0  0  0  0  0  0  0  0  0  0  0  0
    0.2810   10.4620   -7.8910 N   0  0  0  0  0  0  0  0  0  0  0  0
    0.9490    9.9550   -9.0850 C   0  0  0  0  0  0  0  0  0  0  0  0
    1.5460    8.5580   -8.8530 C   0  0  0  0  0  0  0  0  0  0  0  0
   -0.0090    9.9910  -10.2800 C   0  0  0  0  0  0  0  0  0  0  0  0
    2.2230    8.0160  -10.1080 C   0  0  0  0  0  0  0  0  0  0  0  0
    0.6620    9.4560  -11.5410 C   0  0  0  0  0  0  0  0  0  0  0  0
    1.2890    8.0770  -11.3130 C   0  0  0  0  0  0  0  0  0  0  0  0
  1  2  1  0
  2  3  2  0
  2  4  1  0
  4  5  2  0
  3  6  1  0
  5  7  1  0
  6  7  2  0
  7  8  1  0
  8  9  2  0
  8 10  1  0
 10 11  1  0
 11 12  1  0
 12 13  1  0
 13 14  1  0
 14 15  2  3
 15 16  1  0
 15 17  1  0
 17 18  1  0
 18 19  1  0
 19 20  2  0
 19 21  1  0
 21 22  1  0
 22 23  1  0
 22 24  1  0
 23 25  1  0
 24 26  1  0
 25 27  1  0
 26 27  1  0
M  END
