mac-x0139-mac-x0402
     RDKit          3D

 20 22  0  0  0  0  0  0  0  0999 V2000
   -2.0180   15.1950   -3.3710 C   0  0  0  0  0  0  0  0  0  0  0  0
   -0.8970   15.3280   -2.4170 N   0  0  0  0  0  0  0  0  0  0  0  0
    0.3880   14.9410   -3.0720 C   0  0  0  0  0  0  0  0  0  0  0  0
   -1.1210   14.5660   -1.1650 C   0  0  2  0  0  0  0  0  0  0  0  0
    0.3320   13.5940   -3.8070 C   0  0  0  0  0  0  0  0  0  0  0  0
   -2.5990   14.5530   -0.7060 C   0  0  1  0  0  0  0  0  0  0  0  0
   -0.2720   15.1850   -0.1670 N   0  0  0  0  0  0  0  0  0  0  0  0
    0.9340   12.4610   -3.0150 C   0  0  0  0  0  0  0  0  0  0  0  0
   -2.8370   14.4010    0.8040 C   0  0  1  0  0  0  0  0  0  0  0  0
   -0.4830   14.5780    1.1050 C   0  0  0  0  0  0  0  0  0  0  0  0
   -3.3080   15.8340   -1.0160 C   0  0  0  0  0  0  0  0  0  0  0  0
    1.8080   12.5740   -2.1780 O   0  0  0  0  0  0  0  0  0  0  0  0
    0.3920   11.2600   -3.3250 O   0  0  0  0  0  0  0  0  0  0  0  0
   -1.7700   15.0060    1.5740 N   0  0  0  0  0  0  0  0  0  0  0  0
   -4.0840   15.1420    1.1220 N   0  0  0  0  0  0  0  0  0  0  0  0
   -4.5010   15.8190   -0.1020 C   0  0  2  0  0  0  0  0  0  0  0  0
   -5.2580   14.3530    1.4780 C   0  0  1  0  0  0  0  0  0  0  0  0
   -5.6590   15.0540   -0.6950 C   0  0  0  0  0  0  0  0  0  0  0  0
   -6.0190   15.0730    2.4490 N   0  0  0  0  0  0  0  0  0  0  0  0
   -6.1950   14.2520    0.3930 N   0  0  0  0  0  0  0  0  0  0  0  0
  1  2  1  0
  2  3  1  0
  4  2  1  6
  3  5  1  0
  4  6  1  0
  4  7  1  0
  5  8  1  0
  6  9  1  0
  7 10  1  0
  6 11  1  1
  8 12  2  0
  8 13  1  0
  9 14  1  1
 10 14  1  0
  9 15  1  0
 16 11  1  6
 15 16  1  0
 15 17  1  0
 16 18  1  0
 17 19  1  1
 17 20  1  0
 18 20  1  0
M  END
