mac-x0337-mac-x0360
     RDKit          3D

 12 12  0  0  0  0  0  0  0  0999 V2000
   -6.0430    9.3590   -1.8650 C   0  0  0  0  0  0  0  0  0  0  0  0
   -5.4770   10.7220   -1.5890 C   0  0  0  0  0  0  0  0  0  0  0  0
   -6.0060   11.5930   -0.5970 C   0  0  0  0  0  0  0  0  0  0  0  0
   -4.3730   11.1530   -2.3480 C   0  0  0  0  0  0  0  0  0  0  0  0
   -7.3530   11.1930    0.4260 Cl  0  0  0  0  0  0  0  0  0  0  0  0
   -3.8100   12.4100   -2.1430 C   0  0  0  0  0  0  0  0  0  0  0  0
   -5.4390   12.8510   -0.3980 C   0  0  0  0  0  0  0  0  0  0  0  0
   -4.3500   13.2550   -1.1700 C   0  0  0  0  0  0  0  0  0  0  0  0
   -3.6520   14.8640   -0.9130 S   0  0  0  0  0  0  0  0  0  0  0  0
   -3.3580   15.4420   -2.2030 O   0  0  0  0  0  0  0  0  0  0  0  0
   -2.6670   14.7890    0.1420 O   0  0  0  0  0  0  0  0  0  0  0  0
   -4.9630   15.6910   -0.2660 N   0  0  0  0  0  0  0  0  0  0  0  0
  1  2  1  0
  2  3  2  0
  2  4  1  0
  3  5  1  0
  4  6  2  0
  3  7  1  0
  6  8  1  0
  7  8  2  0
  8  9  1  0
  9 10  2  0
  9 11  2  0
  9 12  1  0
M  END
