mac-x0180-mac-x0142
     RDKit          3D

 25 28  0  0  0  0  0  0  0  0999 V2000
   -7.3500   14.5230    2.0510 C   0  0  0  0  0  0  0  0  0  0  0  0
   -6.4970   14.7170    0.8260 C   0  0  0  0  0  0  0  0  0  0  0  0
   -7.0250   14.6570   -0.2850 O   0  0  0  0  0  0  0  0  0  0  0  0
   -5.1430   14.9580    1.0890 N   0  0  0  0  0  0  0  0  0  0  0  0
   -4.2200   14.9950    0.0060 C   0  0  0  0  0  0  0  0  0  0  0  0
   -2.7760   14.8160    0.0930 C   0  0  0  0  0  0  0  0  0  0  0  0
   -4.8340   15.2190   -1.2340 C   0  0  0  0  0  0  0  0  0  0  0  0
   -2.1050   14.8510   -1.1410 C   0  0  0  0  0  0  0  0  0  0  0  0
   -4.1170   15.2720   -2.3930 C   0  0  0  0  0  0  0  0  0  0  0  0
   -2.0260   14.6170    1.2430 N   0  0  0  0  0  0  0  0  0  0  0  0
   -2.7690   15.0920   -2.3490 C   0  0  0  0  0  0  0  0  0  0  0  0
   -0.6770   14.4580    1.0710 C   0  0  0  0  0  0  0  0  0  0  0  0
   -0.7500   14.6450   -1.1780 C   0  0  0  0  0  0  0  0  0  0  0  0
   -2.0900   15.1970   -3.6690 C   0  0  0  0  0  0  0  0  0  0  0  0
   -0.3140   14.6340   -2.5390 N   0  0  0  0  0  0  0  0  0  0  0  0
   -0.0010   14.4570   -0.0980 N   0  0  0  0  0  0  0  0  0  0  0  0
   -2.6030   14.8390   -4.7030 O   0  0  0  0  0  0  0  0  0  0  0  0
   -0.8520   15.7460   -3.6430 O   0  0  0  0  0  0  0  0  0  0  0  0
   -1.0050   13.4630   -3.2210 C   0  0  0  0  0  0  0  0  0  0  0  0
    1.1270   14.7640   -2.8600 C   0  0  0  0  0  0  0  0  0  0  0  0
    1.4280   13.7250   -3.9090 C   0  0  0  0  0  0  0  0  0  0  0  0
   -0.8630   13.4340   -4.7540 C   0  0  0  0  0  0  0  0  0  0  0  0
    2.7840   13.0700   -4.0100 C   0  0  0  0  0  0  0  0  0  0  0  0
    1.6460   12.3420   -3.3600 C   0  0  0  0  0  0  0  0  0  0  0  0
    0.5580   13.8030   -5.1380 C   0  0  0  0  0  0  0  0  0  0  0  0
  1  2  1  0
  2  3  2  0
  2  4  1  0
  4  5  1  0
  5  6  2  0
  5  7  1  0
  6  8  1  0
  7  9  2  0
  6 10  1  0
  8 11  2  0
  9 11  1  0
 10 12  2  0
  8 13  1  0
 11 14  1  0
 13 15  1  0
 12 16  1  0
 13 16  2  0
 14 17  2  0
 14 18  1  0
 15 19  1  0
 15 20  1  0
 21 20  1  0
 19 22  1  0
 21 23  1  0
 21 24  1  0
 23 24  1  0
 21 25  1  0
 22 25  1  0
M  END
