mac-x0373-diamond-x0905_0_A
     RDKit          3D

 17 18  0  0  0  0  0  0  0  0999 V2000
    0.9510   13.4320   -1.2060 O   0  0  0  0  0  0  0  0  0  0  0  0
    0.1200   14.2820   -1.8770 C   0  0  0  0  0  0  0  0  0  0  0  0
    0.5120   15.3670   -2.2730 O   0  0  0  0  0  0  0  0  0  0  0  0
   -1.2990   13.7290   -2.0630 C   0  0  2  0  0  0  0  0  0  0  0  0
   -1.6100   12.8940   -3.2980 C   0  0  0  0  0  0  0  0  0  0  0  0
   -2.4700   14.4320   -1.3680 C   0  0  0  0  0  0  0  0  0  0  0  0
   -0.9510   12.9700   -4.5380 C   0  0  0  0  0  0  0  0  0  0  0  0
   -2.6480   11.9630   -3.1410 C   0  0  0  0  0  0  0  0  0  0  0  0
   -3.7010   14.8100   -1.9640 C   0  0  0  0  0  0  0  0  0  0  0  0
   -2.2800   14.6840   -0.0060 C   0  0  0  0  0  0  0  0  0  0  0  0
   -1.3330   12.1200   -5.5850 C   0  0  0  0  0  0  0  0  0  0  0  0
   -3.0250   11.1220   -4.1800 C   0  0  0  0  0  0  0  0  0  0  0  0
   -4.6910   15.4090   -1.1700 C   0  0  0  0  0  0  0  0  0  0  0  0
   -3.2690   15.2820    0.7540 C   0  0  0  0  0  0  0  0  0  0  0  0
   -5.8940   15.7540   -1.7250 O   0  0  0  0  0  0  0  0  0  0  0  0
   -2.3660   11.2000   -5.4020 C   0  0  0  0  0  0  0  0  0  0  0  0
   -4.4680   15.6400    0.1720 C   0  0  0  0  0  0  0  0  0  0  0  0
  1  2  1  0
  2  3  2  0
  4  2  1  6
  4  5  1  0
  4  6  1  0
  5  7  2  0
  5  8  1  0
  6  9  2  0
  6 10  1  0
  7 11  1  0
  8 12  2  0
  9 13  1  0
 10 14  2  0
 13 15  1  0
 11 16  2  0
 12 16  1  0
 13 17  2  0
 14 17  1  0
M  END
