mac-x0576-mac-x0328
     RDKit          3D

 15 16  0  0  0  0  0  0  0  0999 V2000
    0.0710   14.0840    2.0060 N   0  0  0  0  0  0  0  0  0  0  0  0
   -0.9700   14.3120    1.1820 C   0  0  0  0  0  0  0  0  0  0  0  0
   -2.1110   14.5510    1.6940 N   0  0  0  0  0  0  0  0  0  0  0  0
   -0.7210   14.2720   -0.1470 N   0  0  0  0  0  0  0  0  0  0  0  0
   -1.6950   14.6430   -1.0510 C   0  0  0  0  0  0  0  0  0  0  0  0
   -3.1710   14.7710    0.8480 C   0  0  0  0  0  0  0  0  0  0  0  0
   -1.2480   14.7260   -2.4640 C   0  0  0  0  0  0  0  0  0  0  0  0
   -2.9520   14.9160   -0.6510 C   0  0  0  0  0  0  0  0  0  0  0  0
   -4.3190   14.8280    1.4080 N   0  0  0  0  0  0  0  0  0  0  0  0
   -2.2810   14.8330   -3.3340 O   0  0  0  0  0  0  0  0  0  0  0  0
   -0.1220   14.7050   -2.8740 O   0  0  0  0  0  0  0  0  0  0  0  0
   -5.3750   15.0080    0.5700 C   0  0  0  0  0  0  0  0  0  0  0  0
   -3.9980   15.3070   -1.4580 N   0  0  0  0  0  0  0  0  0  0  0  0
   -6.5410   14.8850    0.9290 O   0  0  0  0  0  0  0  0  0  0  0  0
   -5.1610   15.3600   -0.8810 C   0  0  0  0  0  0  0  0  0  0  0  0
  1  2  1  0
  2  3  2  0
  2  4  1  0
  4  5  1  0
  3  6  1  0
  5  7  1  0
  5  8  2  0
  6  8  1  0
  6  9  2  0
  7 10  1  0
  7 11  2  0
  9 12  1  0
  8 13  1  0
 12 14  2  0
 12 15  1  0
 13 15  2  0
M  END
