mac-x0132-diamond-x0574_0_A
     RDKit          3D

 18 20  0  0  0  0  0  0  0  0999 V2000
   -3.7320   13.6090    2.0950 N   0  0  0  0  0  0  0  0  0  0  0  0
   -4.8290   13.7740    1.3070 C   0  0  0  0  0  0  0  0  0  0  0  0
   -6.0180   13.3940    1.8090 N   0  0  0  0  0  0  0  0  0  0  0  0
   -4.6400   14.3040    0.0780 C   0  0  0  0  0  0  0  0  0  0  0  0
   -5.8110   14.4100   -0.6340 C   0  0  0  0  0  0  0  0  0  0  0  0
   -7.0760   13.5420    1.0330 C   0  0  0  0  0  0  0  0  0  0  0  0
   -3.2800   14.7510   -0.4470 C   0  0  2  0  0  0  0  0  0  0  0  0
   -7.0310   14.0330   -0.1870 N   0  0  0  0  0  0  0  0  0  0  0  0
   -5.8590   14.9890   -1.9760 C   0  0  1  0  0  0  0  0  0  0  0  0
   -3.3670   15.2900   -1.8530 C   0  0  0  0  0  0  0  0  0  0  0  0
   -1.8510   13.5710   -0.5100 S   0  0  0  0  0  0  0  0  0  0  0  0
   -2.6850   15.8040    0.5040 C   0  0  0  0  0  0  0  0  0  0  0  0
   -6.6360   16.1170   -1.5850 O   0  0  0  0  0  0  0  0  0  0  0  0
   -4.5120   15.3850   -2.5290 C   0  0  0  0  0  0  0  0  0  0  0  0
   -1.7990   15.1450    1.4760 N   0  0  0  0  0  0  0  0  0  0  0  0
   -0.8500   14.4950    0.6550 C   0  0  1  0  0  0  0  0  0  0  0  0
   -7.7440   15.7400   -0.7470 C   0  0  0  0  0  0  0  0  0  0  0  0
   -0.1030   13.6630    1.5240 N   0  0  0  0  0  0  0  0  0  0  0  0
  1  2  1  0
  2  3  2  0
  2  4  1  0
  4  5  2  0
  3  6  1  0
  4  7  1  0
  5  8  1  0
  6  8  2  0
  5  9  1  0
  7 10  1  6
  7 11  1  0
  7 12  1  0
  9 13  1  1
  9 14  1  0
 10 14  2  0
 12 15  1  0
 11 16  1  0
 15 16  1  0
 13 17  1  0
 16 18  1  1
M  END
