mac-x0398-mac-x0306
     RDKit          3D

 15 16  0  0  0  0  0  0  0  0999 V2000
   -5.9330   15.1680    2.2990 N   0  0  0  0  0  0  0  0  0  0  0  0
   -5.2920   15.2530    0.9770 C   0  0  1  0  0  0  0  0  0  0  0  0
   -3.9080   14.7060    0.9460 C   0  0  0  0  0  0  0  0  0  0  0  0
   -6.2260   14.6220   -0.1060 C   0  0  0  0  0  0  0  0  0  0  0  0
   -5.5140   14.5070   -1.4830 C   0  0  1  0  0  0  0  0  0  0  0  0
   -3.3270   14.6600   -0.2450 C   0  0  0  0  0  0  0  0  0  0  0  0
   -6.6700   13.3360    0.5140 N   0  0  0  0  0  0  0  0  0  0  0  0
   -7.5940   15.1850   -0.2370 N   0  0  0  0  0  0  0  0  0  0  0  0
   -6.2840   15.1280   -2.5310 O   0  0  0  0  0  0  0  0  0  0  0  0
   -4.1080   15.1390   -1.4410 C   0  0  1  0  0  0  0  0  0  0  0  0
   -8.3100   14.7790    0.8770 C   0  0  0  0  0  0  0  0  0  0  0  0
   -7.7500   13.6650    1.3400 C   0  0  0  0  0  0  0  0  0  0  0  0
   -3.3660   14.9650   -2.7660 C   0  0  0  0  0  0  0  0  0  0  0  0
   -3.8850   14.9000   -3.8680 O   0  0  0  0  0  0  0  0  0  0  0  0
   -2.0180   14.9000   -2.6280 O   0  0  0  0  0  0  0  0  0  0  0  0
  2  1  1  1
  2  3  1  0
  2  4  1  0
  4  5  1  0
  3  6  2  0
  4  7  1  0
  4  8  1  0
  5  9  1  6
  5 10  1  0
  6 10  1  0
  8 11  1  0
  7 12  1  0
 11 12  2  0
 10 13  1  6
 13 14  2  0
 13 15  1  0
M  END
