mac-x0305-mac-x0193
     RDKit          3D

 25 26  0  0  0  0  0  0  0  0999 V2000
    0.3270   13.3200   -0.3270 O   0  0  0  0  0  0  0  0  0  0  0  0
   -0.2120   14.2320   -1.2050 C   0  0  0  0  0  0  0  0  0  0  0  0
    0.4060   14.5490   -2.2770 N   0  0  0  0  0  0  0  0  0  0  0  0
   -1.5700   14.7270   -0.7720 C   0  0  0  0  0  0  0  0  0  0  0  0
    1.6580   13.8940   -2.5540 C   0  0  0  0  0  0  0  0  0  0  0  0
   -1.9420   14.9240    0.5730 C   0  0  0  0  0  0  0  0  0  0  0  0
   -2.4370   14.9470   -1.8120 N   0  0  0  0  0  0  0  0  0  0  0  0
   -1.1360   14.7210    1.6700 O   0  0  0  0  0  0  0  0  0  0  0  0
    1.3320   12.4900   -2.4030 N   0  0  0  0  0  0  0  0  0  0  0  0
   -3.2440   15.3590    0.8370 C   0  0  0  0  0  0  0  0  0  0  0  0
   -3.6840   15.3670   -1.5100 C   0  0  0  0  0  0  0  0  0  0  0  0
    0.7660   11.8350   -3.3510 C   0  0  0  0  0  0  0  0  0  0  0  0
   -4.1260   15.5840   -0.2190 C   0  0  0  0  0  0  0  0  0  0  0  0
    0.3880   10.5440   -3.2540 O   0  0  0  0  0  0  0  0  0  0  0  0
    0.4490   12.4610   -4.7070 C   0  0  0  0  0  0  0  0  0  0  0  0
    0.0320   11.4730   -5.6930 N   0  0  0  0  0  0  0  0  0  0  0  0
    0.7860   11.3280   -6.8270 C   0  0  0  0  0  0  0  0  0  0  0  0
    1.9020   11.7810   -6.9050 O   0  0  0  0  0  0  0  0  0  0  0  0
    0.1180   10.6180   -7.8090 N   0  0  0  0  0  0  0  0  0  0  0  0
    0.8050   10.1210   -9.0080 C   0  0  0  0  0  0  0  0  0  0  0  0
    1.3690    8.7230   -8.7380 C   0  0  0  0  0  0  0  0  0  0  0  0
   -0.1090   10.1250  -10.2390 C   0  0  0  0  0  0  0  0  0  0  0  0
    2.1000    8.1320   -9.9420 C   0  0  0  0  0  0  0  0  0  0  0  0
    0.6130    9.5580  -11.4620 C   0  0  0  0  0  0  0  0  0  0  0  0
    1.2300    8.1800  -11.1970 C   0  0  0  0  0  0  0  0  0  0  0  0
  1  2  1  0
  2  3  2  3
  2  4  1  0
  3  5  1  0
  4  6  2  0
  4  7  1  0
  6  8  1  0
  5  9  1  0
  6 10  1  0
  7 11  2  0
  9 12  2  3
 10 13  2  0
 11 13  1  0
 12 14  1  0
 12 15  1  0
 15 16  1  0
 16 17  1  0
 17 18  2  0
 17 19  1  0
 19 20  1  0
 20 21  1  0
 20 22  1  0
 21 23  1  0
 22 24  1  0
 23 25  1  0
 24 25  1  0
M  END
