mac-x0567-diamond-x0628_0_A
     RDKit          3D

 24 26  0  0  0  0  0  0  0  0999 V2000
    0.2200   13.9050   -0.0240 N   0  0  0  0  0  0  0  0  0  0  0  0
   -1.0220   14.3210    0.3330 C   0  0  0  0  0  0  0  0  0  0  0  0
   -1.3730   14.4320    1.6460 N   0  0  0  0  0  0  0  0  0  0  0  0
   -2.1490   14.7040   -0.3590 C   0  0  0  0  0  0  0  0  0  0  0  0
   -2.6310   14.8550    1.8620 N   0  0  0  0  0  0  0  0  0  0  0  0
   -3.1440   15.0370    0.6450 C   0  0  0  0  0  0  0  0  0  0  0  0
   -2.3470   14.7800   -1.7540 C   0  0  0  0  0  0  0  0  0  0  0  0
   -1.4190   14.4720   -2.8900 C   0  0  0  0  0  0  0  0  0  0  0  0
   -4.4290   15.4770    0.2950 C   0  0  0  0  0  0  0  0  0  0  0  0
   -3.6690   15.2330   -2.0490 C   0  0  0  0  0  0  0  0  0  0  0  0
   -2.1660   13.8560   -4.0820 C   0  0  0  0  0  0  0  0  0  0  0  0
   -4.6570   15.5640   -1.0850 C   0  0  0  0  0  0  0  0  0  0  0  0
   -2.2750   12.3350   -4.0340 C   0  0  0  0  0  0  0  0  0  0  0  0
   -1.4870   11.6000   -5.0630 C   0  0  0  0  0  0  0  0  0  0  0  0
   -1.8400   10.4470   -5.6080 N   0  0  0  0  0  0  0  0  0  0  0  0
   -0.2860   11.9940   -5.6080 N   0  0  0  0  0  0  0  0  0  0  0  0
    0.5240   13.1750   -5.3560 C   0  0  0  0  0  0  0  0  0  0  0  0
   -0.8200   10.1760   -6.4810 C   0  0  0  0  0  0  0  0  0  0  0  0
    0.1460   11.0960   -6.5130 N   0  0  0  0  0  0  0  0  0  0  0  0
   -0.7850    8.9640   -7.3190 C   0  0  0  0  0  0  0  0  0  0  0  0
    1.6300   12.9160   -4.3400 C   0  0  0  0  0  0  0  0  0  0  0  0
    1.1320   12.2010   -3.1120 C   0  0  0  0  0  0  0  0  0  0  0  0
    0.4440   11.1900   -3.0970 O   0  0  0  0  0  0  0  0  0  0  0  0
    1.5260   12.8120   -1.9760 O   0  0  0  0  0  0  0  0  0  0  0  0
  1  2  1  0
  2  3  1  0
  2  4  2  0
  3  5  1  0
  4  6  1  0
  5  6  2  0
  4  7  1  0
  7  8  1  0
  6  9  1  0
  7 10  2  0
  8 11  1  0
  9 12  2  0
 10 12  1  0
 11 13  1  0
 13 14  1  0
 14 15  2  0
 14 16  1  0
 16 17  1  0
 15 18  1  0
 16 19  1  0
 18 19  2  0
 18 20  1  0
 17 21  1  0
 21 22  1  0
 22 23  2  0
 22 24  1  0
M  END
