mac-x0584-diamond-x0592_0_A
     RDKit          3D

 29 33  0  0  0  0  0  0  0  0999 V2000
   -4.1540   12.9370   -1.2940 N   0  0  0  0  0  0  0  0  0  0  0  0
   -4.2960   14.3450   -1.1230 C   0  0  2  0  0  0  0  0  0  0  0  0
   -3.9550   14.9970   -2.2970 O   0  0  0  0  0  0  0  0  0  0  0  0
   -3.3720   14.6440   -0.1330 C   0  0  0  0  0  0  0  0  0  0  0  0
   -5.6600   14.6280   -0.7220 C   0  0  0  0  0  0  0  0  0  0  0  0
   -2.0110   14.7820   -0.3940 C   0  0  0  0  0  0  0  0  0  0  0  0
   -3.5760   14.8140    1.1670 C   0  0  0  0  0  0  0  0  0  0  0  0
   -6.6140   15.2940   -1.4990 C   0  0  0  0  0  0  0  0  0  0  0  0
   -6.2970   14.3170    0.4500 C   0  0  0  0  0  0  0  0  0  0  0  0
   -1.5230   14.9920    0.9700 C   0  0  0  0  0  0  0  0  0  0  0  0
   -1.1370   14.7850   -1.4300 C   0  0  0  0  0  0  0  0  0  0  0  0
   -2.4380   15.0300    1.8800 N   0  0  0  0  0  0  0  0  0  0  0  0
   -7.7760   15.3950   -0.8710 N   0  0  0  0  0  0  0  0  0  0  0  0
   -7.5530   14.7930    0.3080 N   0  0  0  0  0  0  0  0  0  0  0  0
   -8.5940   14.6960    1.2910 C   0  0  0  0  0  0  0  0  0  0  0  0
   -1.3290   14.6240   -2.8020 N   0  0  0  0  0  0  0  0  0  0  0  0
    0.1410   14.9880   -1.0770 N   0  0  0  0  0  0  0  0  0  0  0  0
   -0.2350   15.1600    1.2130 N   0  0  0  0  0  0  0  0  0  0  0  0
   -8.0470   14.1490    2.6000 C   0  0  0  0  0  0  0  0  0  0  0  0
   -0.1390   14.6030   -3.6790 C   0  0  1  0  0  0  0  0  0  0  0  0
   -2.5050   15.0720   -3.5870 C   0  0  0  0  0  0  0  0  0  0  0  0
    0.5010   15.1710    0.1850 C   0  0  0  0  0  0  0  0  0  0  0  0
   -7.1950   15.1040    3.2290 O   0  0  0  0  0  0  0  0  0  0  0  0
    0.1240   13.1980   -4.1780 C   0  0  0  0  0  0  0  0  0  0  0  0
   -0.5060   15.5420   -4.8270 C   0  0  0  0  0  0  0  0  0  0  0  0
   -1.9970   15.3330   -5.0000 C   0  0  0  0  0  0  0  0  0  0  0  0
    1.3220   12.4190   -3.5750 C   0  0  0  0  0  0  0  0  0  0  0  0
   -0.7960   12.1380   -3.5120 C   0  0  0  0  0  0  0  0  0  0  0  0
    0.3880   11.1860   -3.5380 C   0  0  0  0  0  0  0  0  0  0  0  0
  2  1  1  6
  2  3  1  0
  2  4  1  0
  2  5  1  0
  4  6  1  0
  4  7  2  0
  5  8  1  0
  5  9  2  0
  6 10  1  0
  6 11  2  0
  7 12  1  0
 10 12  2  0
  8 13  2  0
  9 14  1  0
 13 14  1  0
 14 15  1  0
 11 16  1  0
 11 17  1  0
 10 18  1  0
 15 19  1  0
 16 20  1  0
 16 21  1  0
 17 22  1  0
 18 22  2  0
 19 23  1  0
 20 24  1  6
 20 25  1  0
 21 26  1  0
 25 26  1  0
 24 27  1  0
 24 28  1  0
 27 29  1  0
 28 29  1  0
M  END
