mac-x0394-diamond-x0524_0_A
     RDKit          3D

 31 33  0  0  0  0  0  0  0  0999 V2000
    0.9670   18.3250   -5.1680 Cl  0  0  0  0  0  0  0  0  0  0  0  0
    0.2610   16.7880   -4.9870 C   0  0  0  0  0  0  0  0  0  0  0  0
   -1.1060   16.6630   -5.1590 C   0  0  0  0  0  0  0  0  0  0  0  0
    1.0580   15.6920   -4.6760 C   0  0  0  0  0  0  0  0  0  0  0  0
    0.4880   14.4290   -4.5360 C   0  0  0  0  0  0  0  0  0  0  0  0
   -1.6820   15.4090   -5.0210 C   0  0  0  0  0  0  0  0  0  0  0  0
   -3.3790   15.2330   -5.2330 Cl  0  0  0  0  0  0  0  0  0  0  0  0
    1.3730   13.2560   -4.1990 C   0  0  0  0  0  0  0  0  0  0  0  0
   -0.8970   14.2920   -4.7130 C   0  0  0  0  0  0  0  0  0  0  0  0
    0.8980   12.4430   -3.0170 C   0  0  0  0  0  0  0  0  0  0  0  0
    0.3440   11.2550   -3.3810 O   0  0  0  0  0  0  0  0  0  0  0  0
    1.0050   12.8330   -1.8610 O   0  0  0  0  0  0  0  0  0  0  0  0
    0.7440   10.7040   -4.6560 C   0  0  0  0  0  0  0  0  0  0  0  0
   -0.0970   11.2470   -5.8220 C   0  0  0  0  0  0  0  0  0  0  0  0
    0.0420   10.3520   -6.9720 N   0  0  0  0  0  0  0  0  0  0  0  0
   -0.7900    9.3900   -7.1650 C   0  0  0  0  0  0  0  0  0  0  0  0
   -0.6050    8.5630   -8.2530 N   0  0  0  0  0  0  0  0  0  0  0  0
   -1.9840    9.1000   -6.2700 C   0  0  0  0  0  0  0  0  0  0  0  0
    0.5100    8.5770   -9.1410 C   0  0  0  0  0  0  0  0  0  0  0  0
    1.6820    7.8510   -8.8960 C   0  0  0  0  0  0  0  0  0  0  0  0
    0.4280    9.3390  -10.3100 C   0  0  0  0  0  0  0  0  0  0  0  0
    2.7430    7.8850   -9.8130 C   0  0  0  0  0  0  0  0  0  0  0  0
    1.4910    9.3690  -11.2210 C   0  0  0  0  0  0  0  0  0  0  0  0
    2.6610    8.6430  -10.9900 C   0  0  0  0  0  0  0  0  0  0  0  0
    3.7010    8.6930  -11.9350 N   0  0  0  0  0  0  0  0  0  0  0  0
    3.9780    9.5430  -13.0240 C   0  0  0  0  0  0  0  0  0  0  0  0
    3.2050   10.6970  -13.2430 C   0  0  0  0  0  0  0  0  0  0  0  0
    5.0200    9.2760  -13.9160 C   0  0  0  0  0  0  0  0  0  0  0  0
    3.4700   11.5490  -14.3150 C   0  0  0  0  0  0  0  0  0  0  0  0
    5.2860   10.1260  -14.9900 C   0  0  0  0  0  0  0  0  0  0  0  0
    4.5120   11.2620  -15.1890 C   0  0  0  0  0  0  0  0  0  0  0  0
  1  2  1  0
  2  3  2  0
  2  4  1  0
  4  5  2  0
  3  6  1  0
  6  7  1  0
  5  8  1  0
  5  9  1  0
  6  9  2  0
  8 10  1  0
 10 11  1  0
 10 12  2  0
 11 13  1  0
 13 14  1  0
 14 15  1  0
 15 16  2  3
 16 17  1  0
 16 18  1  0
 17 19  1  0
 19 20  2  0
 19 21  1  0
 20 22  1  0
 21 23  2  0
 22 24  2  0
 23 24  1  0
 24 25  1  0
 25 26  1  0
 26 27  2  0
 26 28  1  0
 27 29  1  0
 28 30  2  0
 29 31  2  0
 30 31  1  0
M  END
