mac-x0398-mac-x0303
     RDKit          3D

 18 19  0  0  0  0  0  0  0  0999 V2000
   -5.6420   15.3540    2.0610 N   0  0  0  0  0  0  0  0  0  0  0  0
   -5.9020   14.4710    0.9550 C   0  0  2  0  0  0  0  0  0  0  0  0
   -4.5800   13.7300    0.8070 C   0  0  0  0  0  0  0  0  0  0  0  0
   -6.3450   14.9440   -0.4680 C   0  0  1  0  0  0  0  0  0  0  0  0
   -7.3430   13.9810    0.9960 C   0  0  2  0  0  0  0  0  0  0  0  0
   -8.3860   14.0520    2.4110 S   0  0  0  0  0  0  0  0  0  0  0  0
   -5.2860   15.4300   -1.4100 C   0  0  2  0  0  0  0  0  0  0  0  0
   -3.8280   13.7020   -0.3280 C   0  0  0  0  0  0  0  0  0  0  0  0
   -6.9550   13.6900   -1.1170 N   0  0  0  0  0  0  0  0  0  0  0  0
   -7.3450   12.8520    0.0410 C   0  0  0  0  0  0  0  0  0  0  0  0
   -5.9420   15.5790   -2.6830 O   0  0  0  0  0  0  0  0  0  0  0  0
   -7.9130   12.6980    3.2650 N   0  0  0  0  0  0  0  0  0  0  0  0
   -8.0720   15.1910    3.2390 O   0  0  0  0  0  0  0  0  0  0  0  0
   -9.7410   13.8280    1.9560 O   0  0  0  0  0  0  0  0  0  0  0  0
   -4.2360   14.3700   -1.6280 C   0  0  2  0  0  0  0  0  0  0  0  0
   -3.1540   14.9190   -2.5670 C   0  0  0  0  0  0  0  0  0  0  0  0
   -3.3760   15.2680   -3.7230 O   0  0  0  0  0  0  0  0  0  0  0  0
   -1.9070   14.9840   -2.0470 O   0  0  0  0  0  0  0  0  0  0  0  0
  2  1  1  1
  2  3  1  0
  2  4  1  0
  2  5  1  0
  5  6  1  1
  4  7  1  0
  3  8  2  0
  4  9  1  6
  5 10  1  0
  9 10  1  0
  7 11  1  6
  6 12  1  0
  6 13  2  0
  6 14  2  0
  7 15  1  0
  8 15  1  0
 15 16  1  1
 16 17  2  0
 16 18  1  0
M  END
