mac-x0180-mac-x0354
     RDKit          3D

 30 32  0  0  0  0  0  0  0  0999 V2000
   -7.7480   14.4950    1.5500 C   0  0  0  0  0  0  0  0  0  0  0  0
   -6.7770   14.7000    0.4140 C   0  0  0  0  0  0  0  0  0  0  0  0
   -7.1750   14.7500   -0.7460 O   0  0  0  0  0  0  0  0  0  0  0  0
   -5.4660   14.8220    0.8530 N   0  0  0  0  0  0  0  0  0  0  0  0
   -4.3410   14.8480   -0.0000 C   0  0  0  0  0  0  0  0  0  0  0  0
   -3.0360   14.6150    0.4240 C   0  0  0  0  0  0  0  0  0  0  0  0
   -4.5720   15.1220   -1.3580 C   0  0  0  0  0  0  0  0  0  0  0  0
   -1.9660   14.6480   -0.4890 C   0  0  0  0  0  0  0  0  0  0  0  0
   -3.5110   15.1550   -2.2700 C   0  0  0  0  0  0  0  0  0  0  0  0
   -2.2000   14.9180   -1.8450 C   0  0  0  0  0  0  0  0  0  0  0  0
   -1.1190   14.9770   -2.8740 C   0  0  0  0  0  0  0  0  0  0  0  0
   -1.3510   14.9950   -4.0730 O   0  0  0  0  0  0  0  0  0  0  0  0
    0.1190   15.0290   -2.3190 O   0  0  0  0  0  0  0  0  0  0  0  0
    1.1690   14.7580   -3.2720 C   0  0  0  0  0  0  0  0  0  0  0  0
    2.0450   13.6230   -2.7430 C   0  0  0  0  0  0  0  0  0  0  0  0
    1.2450   12.4610   -2.3490 N   0  0  0  0  0  0  0  0  0  0  0  0
    0.7290   11.6190   -3.1740 C   0  0  0  0  0  0  0  0  0  0  0  0
    0.0260   10.5270   -2.7480 O   0  0  0  0  0  0  0  0  0  0  0  0
    0.9220   11.7760   -4.6190 C   0  0  0  0  0  0  0  0  0  0  0  0
    1.8730   12.6080   -5.2700 C   0  0  0  0  0  0  0  0  0  0  0  0
    0.2690   11.1560   -5.7030 C   0  0  0  0  0  0  0  0  0  0  0  0
    0.8600   11.6250   -6.8310 N   0  0  0  0  0  0  0  0  0  0  0  0
    1.8330   12.5110   -6.5900 N   0  0  0  0  0  0  0  0  0  0  0  0
   -0.7980   10.1890   -5.8050 C   0  0  0  0  0  0  0  0  0  0  0  0
    0.5130   11.2300   -8.1850 C   0  0  0  0  0  0  0  0  0  0  0  0
   -0.5760    8.9580   -6.4330 C   0  0  0  0  0  0  0  0  0  0  0  0
   -2.0540   10.4850   -5.2820 C   0  0  0  0  0  0  0  0  0  0  0  0
   -1.6070    8.0320   -6.5320 C   0  0  0  0  0  0  0  0  0  0  0  0
   -3.0840    9.5580   -5.3820 C   0  0  0  0  0  0  0  0  0  0  0  0
   -2.8600    8.3320   -6.0060 C   0  0  0  0  0  0  0  0  0  0  0  0
  1  2  1  0
  2  3  2  0
  2  4  1  0
  4  5  1  0
  5  6  2  0
  5  7  1  0
  6  8  1  0
  7  9  2  0
  8 10  2  0
  9 10  1  0
 10 11  1  0
 11 12  2  0
 11 13  1  0
 13 14  1  0
 14 15  1  0
 15 16  1  0
 16 17  2  3
 17 18  1  0
 17 19  1  0
 19 20  1  0
 19 21  2  0
 21 22  1  0
 20 23  2  0
 22 23  1  0
 21 24  1  0
 22 25  1  0
 24 26  2  0
 24 27  1  0
 26 28  1  0
 27 29  2  0
 28 30  2  0
 29 30  1  0
M  END
