mac-x0178-mac-x0394
     RDKit          3D

 15 15  0  0  0  0  0  0  0  0999 V2000
   -0.5000   18.1630   -6.4940 N   0  0  0  0  0  0  0  0  0  0  0  0
   -1.8150   17.5000   -5.6940 S   0  0  0  0  0  0  0  0  0  0  0  0
   -2.7430   17.0710   -6.7040 O   0  0  0  0  0  0  0  0  0  0  0  0
   -2.1240   18.5240   -4.7270 O   0  0  0  0  0  0  0  0  0  0  0  0
   -1.1160   16.1250   -4.8470 C   0  0  0  0  0  0  0  0  0  0  0  0
    0.1000   16.3010   -4.2260 C   0  0  0  0  0  0  0  0  0  0  0  0
   -1.7720   14.8830   -4.8010 C   0  0  0  0  0  0  0  0  0  0  0  0
    0.9090   17.8260   -4.2840 Cl  0  0  0  0  0  0  0  0  0  0  0  0
    0.6880   15.2290   -3.5410 C   0  0  0  0  0  0  0  0  0  0  0  0
   -1.1850   13.8090   -4.1180 C   0  0  0  0  0  0  0  0  0  0  0  0
    0.0590   13.9650   -3.4750 C   0  0  0  0  0  0  0  0  0  0  0  0
    0.7380   12.8200   -2.7340 C   0  0  0  0  0  0  0  0  0  0  0  0
    0.6970   12.9760   -1.3180 O   0  0  0  0  0  0  0  0  0  0  0  0
    0.1340   11.5680   -2.9880 O   0  0  0  0  0  0  0  0  0  0  0  0
    2.1750   12.8220   -3.2450 C   0  0  0  0  0  0  0  0  0  0  0  0
  2  1  1  0
  2  3  2  0
  2  4  2  0
  2  5  1  0
  5  6  2  0
  5  7  1  0
  6  8  1  0
  6  9  1  0
  7 10  2  0
  9 11  2  0
 10 11  1  0
 11 12  1  0
 12 13  1  0
 12 14  1  0
 12 15  1  0
M  END
