mac-x0193-diamond-x0676_0_B
     RDKit          3D

 26 28  0  0  0  0  0  0  0  0999 V2000
    0.3040   10.8490   -3.1190 O   0  0  0  0  0  0  0  0  0  0  0  0
    0.7560   12.1110   -3.2830 C   0  0  0  0  0  0  0  0  0  0  0  0
    1.1190   12.7920   -2.3360 O   0  0  0  0  0  0  0  0  0  0  0  0
    0.7660   12.6080   -4.7220 C   0  0  0  0  0  0  0  0  0  0  0  0
    0.1490   11.6670   -5.6370 N   0  0  0  0  0  0  0  0  0  0  0  0
    0.8290   11.4660   -6.7940 C   0  0  0  0  0  0  0  0  0  0  0  0
    1.9860   11.7930   -6.8810 O   0  0  0  0  0  0  0  0  0  0  0  0
    0.0790   10.8910   -7.8010 N   0  0  0  0  0  0  0  0  0  0  0  0
    0.7620   10.1290   -8.8360 C   0  0  0  0  0  0  0  0  0  0  0  0
    1.0750    8.7430   -8.2840 C   0  0  0  0  0  0  0  0  0  0  0  0
   -0.0220   10.0530  -10.1650 C   0  0  0  0  0  0  0  0  0  0  0  0
    0.9860    7.7120   -9.3790 C   0  0  0  0  0  0  0  0  0  0  0  0
    0.7830    9.3080  -11.2500 C   0  0  0  0  0  0  0  0  0  0  0  0
    1.6630    8.2790  -10.5740 C   0  0  0  0  0  0  0  0  0  0  0  0
    2.8930    7.8390  -10.8570 C   0  0  0  0  0  0  0  0  0  0  0  0
    3.4810    6.8100   -9.9320 C   0  0  0  0  0  0  0  0  0  0  0  0
    3.8560    8.0900  -11.8290 N   0  0  0  0  0  0  0  0  0  0  0  0
    5.1090    7.7620  -11.3390 N   0  0  0  0  0  0  0  0  0  0  0  0
    4.9000    7.0720  -10.2610 C   0  0  0  0  0  0  0  0  0  0  0  0
    3.9040    9.1630  -12.7760 C   0  0  0  0  0  0  0  0  0  0  0  0
    5.9790    6.5530   -9.3780 C   0  0  0  0  0  0  0  0  0  0  0  0
    2.9770   10.2220  -12.7350 C   0  0  0  0  0  0  0  0  0  0  0  0
    4.8770    9.2060  -13.7800 C   0  0  0  0  0  0  0  0  0  0  0  0
    3.0220   11.2770  -13.6520 C   0  0  0  0  0  0  0  0  0  0  0  0
    4.9260   10.2570  -14.7020 C   0  0  0  0  0  0  0  0  0  0  0  0
    4.0000   11.2920  -14.6370 C   0  0  0  0  0  0  0  0  0  0  0  0
  1  2  1  0
  2  3  2  0
  2  4  1  0
  4  5  1  0
  5  6  1  0
  6  7  2  0
  6  8  1  0
  8  9  1  0
  9 10  1  0
  9 11  1  0
 10 12  1  0
 11 13  1  0
 12 14  1  0
 13 14  1  0
 14 15  2  3
 15 16  1  0
 15 17  1  0
 17 18  1  0
 16 19  1  0
 18 19  2  0
 17 20  1  0
 19 21  1  0
 20 22  2  0
 20 23  1  0
 22 24  1  0
 23 25  2  0
 24 26  2  0
 25 26  1  0
M  END
