mac-x0319-mac-x0360
     RDKit          3D

 24 25  0  0  0  0  0  0  0  0999 V2000
    0.3450   10.4140   -2.5390 O   0  0  0  0  0  0  0  0  0  0  0  0
    0.7510   11.7120   -2.5040 C   0  0  0  0  0  0  0  0  0  0  0  0
    0.7360   12.3350   -1.4490 O   0  0  0  0  0  0  0  0  0  0  0  0
    1.1890   12.3390   -3.8190 C   0  0  0  0  0  0  0  0  0  0  0  0
    0.5580   13.6940   -4.0200 C   0  0  0  0  0  0  0  0  0  0  0  0
    1.2440   14.7860   -4.5550 C   0  0  0  0  0  0  0  0  0  0  0  0
   -0.7730   13.8520   -3.6380 C   0  0  0  0  0  0  0  0  0  0  0  0
    0.5830   16.0080   -4.7040 C   0  0  0  0  0  0  0  0  0  0  0  0
   -1.4410   15.0650   -3.7710 C   0  0  0  0  0  0  0  0  0  0  0  0
    1.1940   17.1090   -5.2200 O   0  0  0  0  0  0  0  0  0  0  0  0
   -2.8730   15.1150   -3.2840 C   0  0  0  0  0  0  0  0  0  0  0  0
   -0.7490   16.1560   -4.3220 C   0  0  0  0  0  0  0  0  0  0  0  0
   -2.8620   14.4120   -1.9900 N   0  0  0  0  0  0  0  0  0  0  0  0
   -3.8080   14.7650   -0.6540 S   0  0  0  0  0  0  0  0  0  0  0  0
   -4.7030   15.8340   -1.0140 O   0  0  0  0  0  0  0  0  0  0  0  0
   -2.9580   14.8510    0.5150 O   0  0  0  0  0  0  0  0  0  0  0  0
   -4.7760   13.2740   -0.5550 C   0  0  0  0  0  0  0  0  0  0  0  0
   -4.5870   12.2860   -1.5270 C   0  0  0  0  0  0  0  0  0  0  0  0
   -5.7100   13.0980    0.4710 C   0  0  0  0  0  0  0  0  0  0  0  0
   -5.3450   11.1190   -1.4710 C   0  0  0  0  0  0  0  0  0  0  0  0
   -6.4590   11.9190    0.5070 C   0  0  0  0  0  0  0  0  0  0  0  0
   -7.6180   11.6790    1.7570 Cl  0  0  0  0  0  0  0  0  0  0  0  0
   -5.1210    9.8950   -2.6600 Cl  0  0  0  0  0  0  0  0  0  0  0  0
   -6.2840   10.9340   -0.4580 C   0  0  0  0  0  0  0  0  0  0  0  0
  1  2  1  0
  2  3  2  0
  2  4  1  0
  4  5  1  0
  5  6  2  0
  5  7  1  0
  6  8  1  0
  7  9  2  0
  8 10  1  0
  9 11  1  0
  8 12  2  0
  9 12  1  0
 11 13  1  0
 14 13  1  0
 14 15  2  0
 14 16  2  0
 14 17  1  0
 17 18  2  0
 17 19  1  0
 18 20  1  0
 19 21  2  0
 21 22  1  0
 20 23  1  0
 20 24  2  0
 21 24  1  0
M  END
