mac-x0380-diamond-x0969_0_A
     RDKit          3D

 14 15  0  0  0  0  0  0  0  0999 V2000
   -1.3480   14.7490   -2.4990 O   0  0  0  0  0  0  0  0  0  0  0  0
   -2.6500   15.0050   -2.7560 C   0  0  0  0  0  0  0  0  0  0  0  0
   -3.0800   15.2210   -3.8750 O   0  0  0  0  0  0  0  0  0  0  0  0
   -3.5120   15.0030   -1.5460 C   0  0  0  0  0  0  0  0  0  0  0  0
   -4.9020   15.0590   -1.6590 C   0  0  0  0  0  0  0  0  0  0  0  0
   -2.9150   14.9420   -0.2790 C   0  0  0  0  0  0  0  0  0  0  0  0
   -5.6970   15.0470   -0.5100 C   0  0  0  0  0  0  0  0  0  0  0  0
   -3.7100   14.9330    0.8700 C   0  0  0  0  0  0  0  0  0  0  0  0
   -5.1020   14.9820    0.7570 C   0  0  0  0  0  0  0  0  0  0  0  0
   -7.4630   15.1020   -0.7030 S   0  0  0  0  0  0  0  0  0  0  0  0
   -5.8700   14.9580    1.9380 N   0  0  0  0  0  0  0  0  0  0  0  0
   -7.8780   14.1290    0.7580 C   0  0  0  0  0  0  0  0  0  0  0  0
   -7.2010   14.6370    2.0040 C   0  0  0  0  0  0  0  0  0  0  0  0
   -7.8280   14.7760    3.0590 O   0  0  0  0  0  0  0  0  0  0  0  0
  1  2  1  0
  2  3  2  0
  2  4  1  0
  4  5  2  0
  4  6  1  0
  5  7  1  0
  6  8  2  0
  7  9  2  0
  8  9  1  0
  7 10  1  0
  9 11  1  0
 10 12  1  0
 11 13  1  0
 12 13  1  0
 13 14  2  0
M  END
