mac-x0441-mac-x0394
     RDKit          3D

 25 27  0  0  0  0  0  0  0  0999 V2000
    1.2290   10.9210   -3.3420 O   0  0  0  0  0  0  0  0  0  0  0  0
    1.2410   12.2520   -3.5710 C   0  0  0  0  0  0  0  0  0  0  0  0
    1.9990   12.9440   -2.9220 O   0  0  0  0  0  0  0  0  0  0  0  0
    0.2350   12.6850   -4.6110 C   0  0  2  0  0  0  0  0  0  0  0  0
    0.1020   11.8810   -5.8590 N   0  0  0  0  0  0  0  0  0  0  0  0
   -0.1170   14.1690   -4.7660 C   0  0  0  0  0  0  0  0  0  0  0  0
    0.9700   11.8930   -6.9300 N   0  0  0  0  0  0  0  0  0  0  0  0
   -0.9380   11.0200   -6.0720 C   0  0  0  0  0  0  0  0  0  0  0  0
   -1.4410   14.3670   -5.1000 C   0  0  0  0  0  0  0  0  0  0  0  0
    0.7150   15.3190   -4.6080 C   0  0  0  0  0  0  0  0  0  0  0  0
    0.4280   11.0040   -7.8290 C   0  0  0  0  0  0  0  0  0  0  0  0
   -0.7580   10.4560   -7.3100 C   0  0  0  0  0  0  0  0  0  0  0  0
   -2.0680   10.7230   -5.1480 C   0  0  0  0  0  0  0  0  0  0  0  0
   -1.9730   15.6180   -5.2820 C   0  0  0  0  0  0  0  0  0  0  0  0
    0.1330   16.6040   -4.7980 C   0  0  0  0  0  0  0  0  0  0  0  0
    0.9280   10.5740   -9.2030 C   0  0  0  0  0  0  0  0  0  0  0  0
    1.0110   18.0600   -4.6330 Cl  0  0  0  0  0  0  0  0  0  0  0  0
   -3.6200   15.7130   -5.7070 Cl  0  0  0  0  0  0  0  0  0  0  0  0
   -1.6850    9.4560   -7.8910 C   0  0  0  0  0  0  0  0  0  0  0  0
   -3.0950    9.7790   -5.8080 C   0  0  0  0  0  0  0  0  0  0  0  0
   -1.2010   16.7470   -5.1330 C   0  0  0  0  0  0  0  0  0  0  0  0
    1.5650    9.3750   -9.1470 F   0  0  0  0  0  0  0  0  0  0  0  0
   -0.1220   10.3570  -10.0320 F   0  0  0  0  0  0  0  0  0  0  0  0
    1.7120   11.3980   -9.9140 F   0  0  0  0  0  0  0  0  0  0  0  0
   -2.4590    8.7530   -6.7650 C   0  0  0  0  0  0  0  0  0  0  0  0
  1  2  1  0
  2  3  2  0
  4  2  1  6
  4  5  1  0
  4  6  1  0
  5  7  1  0
  5  8  1  0
  6  9  2  0
  6 10  1  0
  7 11  2  0
  8 12  2  0
 11 12  1  0
  8 13  1  0
  9 14  1  0
 10 15  2  0
 11 16  1  0
 15 17  1  0
 14 18  1  0
 12 19  1  0
 13 20  1  0
 14 21  2  0
 15 21  1  0
 16 22  1  0
 16 23  1  0
 16 24  1  0
 19 25  1  0
 20 25  1  0
M  END
