mac-x0193-diamond-x0926_0_A
     RDKit          3D

 24 25  0  0  0  0  0  0  0  0999 V2000
    1.3580   10.9230   -3.2930 O   0  0  0  0  0  0  0  0  0  0  0  0
    0.7530   12.0920   -3.4400 C   0  0  0  0  0  0  0  0  0  0  0  0
    0.3620   12.7560   -2.4100 N   0  0  0  0  0  0  0  0  0  0  0  0
    0.5560   12.5800   -4.8800 C   0  0  0  0  0  0  0  0  0  0  0  0
    0.0230   11.5910   -5.8230 N   0  0  0  0  0  0  0  0  0  0  0  0
   -0.3470   14.0170   -2.6360 C   0  0  0  0  0  0  0  0  0  0  0  0
    0.7390   11.3790   -6.9830 C   0  0  0  0  0  0  0  0  0  0  0  0
   -1.8330   13.6500   -2.7850 C   0  0  0  0  0  0  0  0  0  0  0  0
    1.9330   11.4750   -6.9870 O   0  0  0  0  0  0  0  0  0  0  0  0
   -0.0750   11.0720   -8.0600 N   0  0  0  0  0  0  0  0  0  0  0  0
   -2.8150   14.8240   -2.8300 C   0  0  0  0  0  0  0  0  0  0  0  0
    0.2080   10.1180   -9.1640 C   0  0  0  0  0  0  0  0  0  0  0  0
   -3.3380   15.1670   -1.4950 N   0  0  0  0  0  0  0  0  0  0  0  0
    1.1600    8.9950   -8.8180 C   0  0  0  0  0  0  0  0  0  0  0  0
    0.6280   10.7670  -10.4750 C   0  0  0  0  0  0  0  0  0  0  0  0
   -2.6800   14.8960   -0.3110 C   0  0  0  0  0  0  0  0  0  0  0  0
   -4.7220   15.4120   -1.4770 N   0  0  0  0  0  0  0  0  0  0  0  0
    1.9560    8.4360  -10.0040 C   0  0  0  0  0  0  0  0  0  0  0  0
    0.5990    9.7690  -11.6440 C   0  0  0  0  0  0  0  0  0  0  0  0
   -3.2730   14.9060    0.8820 C   0  0  0  0  0  0  0  0  0  0  0  0
   -5.4660   15.2170   -0.3450 C   0  0  0  0  0  0  0  0  0  0  0  0
   -6.6870   15.0340   -0.4120 O   0  0  0  0  0  0  0  0  0  0  0  0
    1.1020    8.3770  -11.2520 C   0  0  0  0  0  0  0  0  0  0  0  0
   -4.7190   15.2200    0.9860 C   0  0  0  0  0  0  0  0  0  0  0  0
  1  2  1  0
  2  3  2  3
  2  4  1  0
  4  5  1  0
  3  6  1  0
  5  7  1  0
  6  8  1  0
  7  9  2  0
  7 10  1  0
  8 11  1  0
 10 12  1  0
 11 13  1  0
 12 14  1  0
 12 15  1  0
 13 16  1  0
 13 17  1  0
 14 18  1  0
 15 19  1  0
 16 20  2  0
 17 21  1  0
 21 22  2  0
 18 23  1  0
 19 23  1  0
 20 24  1  0
 21 24  1  0
M  END
