mac-x0337-mac-x0123
     RDKit          3D

 23 26  0  0  0  0  0  0  0  0999 V2000
   -5.1150    8.1420   -2.2900 C   0  0  0  0  0  0  0  0  0  0  0  0
   -5.1980    9.6390   -2.4570 C   0  0  0  0  0  0  0  0  0  0  0  0
   -6.2480   10.3730   -1.9350 C   0  0  0  0  0  0  0  0  0  0  0  0
   -4.2340   10.3120   -3.1340 C   0  0  0  0  0  0  0  0  0  0  0  0
   -4.3070   11.6730   -3.2940 C   0  0  0  0  0  0  0  0  0  0  0  0
   -6.2940   11.7410   -2.1130 C   0  0  0  0  0  0  0  0  0  0  0  0
   -5.3360   12.4650   -2.7990 C   0  0  0  0  0  0  0  0  0  0  0  0
   -5.3630   14.2000   -3.0500 S   0  0  0  0  0  0  0  0  0  0  0  0
   -6.3070   14.5210   -1.7380 O   0  0  0  0  0  0  0  0  0  0  0  0
   -6.8360   14.6820   -3.7470 N   0  0  0  0  0  0  0  0  0  0  0  0
   -4.2990   15.0580   -2.2830 N   0  0  0  0  0  0  0  0  0  0  0  0
   -4.1080   14.9620   -1.0050 N   0  0  0  0  0  0  0  0  0  0  0  0
   -2.9620   14.6410   -2.7190 C   0  0  0  0  0  0  0  0  0  0  0  0
   -4.9160   15.4990   -0.0380 C   0  0  2  0  0  0  0  0  0  0  0  0
   -3.6230   13.6970   -0.7760 C   0  0  1  0  0  0  0  0  0  0  0  0
   -2.4600   13.7830   -1.6350 N   0  0  0  0  0  0  0  0  0  0  0  0
   -4.1610   16.1540    1.0110 N   0  0  0  0  0  0  0  0  0  0  0  0
   -3.3420   13.4320    0.6440 N   0  0  0  0  0  0  0  0  0  0  0  0
   -5.6320   14.2550    0.4710 C   0  0  1  0  0  0  0  0  0  0  0  0
   -4.5520   13.6740    1.3710 C   0  0  1  0  0  0  0  0  0  0  0  0
   -6.7250   14.3540    1.4330 C   0  0  0  0  0  0  0  0  0  0  0  0
   -5.3790   12.5280    1.8800 C   0  0  0  0  0  0  0  0  0  0  0  0
   -6.6000   13.3360    2.2730 C   0  0  0  0  0  0  0  0  0  0  0  0
  1  2  1  0
  2  3  2  0
  2  4  1  0
  4  5  2  0
  3  6  1  0
  5  7  1  0
  6  7  2  0
  7  8  1  0
  8  9  2  0
  8 10  1  0
  8 11  1  0
 11 12  1  0
 11 13  1  0
 12 14  1  0
 12 15  1  0
 13 16  1  0
 15 16  1  6
 14 17  1  1
 15 18  1  0
 14 19  1  0
 18 20  1  0
 19 20  1  0
 19 21  1  1
 20 22  1  6
 21 23  2  0
 22 23  1  0
M  END
