mac-x0387-diamond-x0685_0_A
     RDKit          3D

 21 23  0  0  0  0  0  0  0  0999 V2000
   -2.9430   14.7110    2.0460 N   0  0  0  0  0  0  0  0  0  0  0  0
   -1.8730   14.8140    1.1640 C   0  0  0  0  0  0  0  0  0  0  0  0
   -0.7380   14.9300    1.6780 N   0  0  0  0  0  0  0  0  0  0  0  0
   -2.0540   14.8110   -0.1860 C   0  0  0  0  0  0  0  0  0  0  0  0
   -1.0880   14.8970   -1.1440 C   0  0  0  0  0  0  0  0  0  0  0  0
    0.2350   15.0660    0.7890 C   0  0  0  0  0  0  0  0  0  0  0  0
   -3.2530   14.7350   -0.5710 C   0  0  0  0  0  0  0  0  0  0  0  0
    0.1700   15.0330   -0.6040 C   0  0  0  0  0  0  0  0  0  0  0  0
   -1.4800   14.8670   -2.5420 C   0  0  0  0  0  0  0  0  0  0  0  0
   -3.7190   14.7300   -1.7880 C   0  0  0  0  0  0  0  0  0  0  0  0
   -2.8820   14.7850   -2.9080 C   0  0  0  0  0  0  0  0  0  0  0  0
   -4.9280   14.6660   -1.0900 C   0  0  0  0  0  0  0  0  0  0  0  0
   -4.3660   14.9910    0.1340 C   0  0  0  0  0  0  0  0  0  0  0  0
   -6.2800   14.4270   -1.1270 C   0  0  0  0  0  0  0  0  0  0  0  0
   -3.3100   14.7830   -4.2380 N   0  0  0  0  0  0  0  0  0  0  0  0
   -5.0450   15.0670    1.2750 C   0  0  0  0  0  0  0  0  0  0  0  0
   -7.0160   14.5000    0.0570 N   0  0  0  0  0  0  0  0  0  0  0  0
   -6.3560   14.8130    1.2310 C   0  0  0  0  0  0  0  0  0  0  0  0
   -6.9890   14.9000    2.4510 N   0  0  0  0  0  0  0  0  0  0  0  0
   -8.2480   14.2350    2.6340 C   0  0  0  0  0  0  0  0  0  0  0  0
   -8.0380   12.8530    3.2210 C   0  0  0  0  0  0  0  0  0  0  0  0
  1  2  1  0
  2  3  2  0
  2  4  1  0
  4  5  2  0
  3  6  1  0
  4  7  1  0
  5  8  1  0
  6  8  2  0
  5  9  1  0
  7 10  2  0
  9 11  2  0
 10 11  1  0
 10 12  1  0
 12 13  2  0
 12 14  1  0
 11 15  1  0
 13 16  1  0
 14 17  2  0
 16 18  2  0
 17 18  1  0
 18 19  1  0
 19 20  1  0
 20 21  1  0
M  END
