mac-x0437-mac-x0451
     RDKit          3D

 27 30  0  0  0  0  0  0  0  0999 V2000
    1.8110   12.8950   -2.1550 O   0  0  0  0  0  0  0  0  0  0  0  0
    1.2810   12.2550   -3.2070 C   0  0  0  0  0  0  0  0  0  0  0  0
    0.6510   11.2180   -3.0540 O   0  0  0  0  0  0  0  0  0  0  0  0
    1.5290   12.9490   -4.5210 C   0  0  0  0  0  0  0  0  0  0  0  0
    0.2350   13.1810   -5.3100 C   0  0  2  0  0  0  0  0  0  0  0  0
   -0.6280   14.3140   -4.6990 C   0  0  0  0  0  0  0  0  0  0  0  0
   -0.5270   11.9810   -5.6310 N   0  0  0  0  0  0  0  0  0  0  0  0
   -1.1740   14.0840   -3.2830 C   0  0  0  0  0  0  0  0  0  0  0  0
   -1.6890   11.6340   -4.9780 C   0  0  0  0  0  0  0  0  0  0  0  0
   -0.2840   11.0090   -6.5680 C   0  0  0  0  0  0  0  0  0  0  0  0
   -1.9740   15.2050   -2.9470 O   0  0  0  0  0  0  0  0  0  0  0  0
   -2.2000   10.5160   -5.4280 N   0  0  0  0  0  0  0  0  0  0  0  0
   -1.3390   10.1110   -6.4130 C   0  0  0  0  0  0  0  0  0  0  0  0
    0.7190   10.8050   -7.5200 C   0  0  0  0  0  0  0  0  0  0  0  0
   -1.4100    8.9680   -7.2220 C   0  0  0  0  0  0  0  0  0  0  0  0
    0.6350    9.6600   -8.3200 C   0  0  0  0  0  0  0  0  0  0  0  0
   -2.9610   15.1000   -2.0040 C   0  0  0  0  0  0  0  0  0  0  0  0
   -0.4100    8.7540   -8.1760 C   0  0  0  0  0  0  0  0  0  0  0  0
   -4.2400   15.2250   -2.5320 C   0  0  0  0  0  0  0  0  0  0  0  0
   -2.7770   14.9000   -0.6320 C   0  0  0  0  0  0  0  0  0  0  0  0
   -3.9200   14.8400    0.1780 C   0  0  0  0  0  0  0  0  0  0  0  0
   -5.3670   15.1590   -1.7170 C   0  0  0  0  0  0  0  0  0  0  0  0
   -5.2070   14.9640   -0.3370 C   0  0  0  0  0  0  0  0  0  0  0  0
   -4.0290   14.6200    1.8750 S   0  0  0  0  0  0  0  0  0  0  0  0
   -5.7410   14.7080    1.7890 C   0  0  0  0  0  0  0  0  0  0  0  0
   -6.2270   14.8810    0.5880 N   0  0  0  0  0  0  0  0  0  0  0  0
   -6.5410   14.6140    2.8700 N   0  0  0  0  0  0  0  0  0  0  0  0
  1  2  1  0
  2  3  2  0
  2  4  1  0
  5  4  1  1
  5  6  1  0
  5  7  1  0
  6  8  1  0
  7  9  1  0
  7 10  1  0
  8 11  1  0
  9 12  2  0
 10 13  2  0
 12 13  1  0
 10 14  1  0
 13 15  1  0
 14 16  2  0
 11 17  1  0
 15 18  2  0
 16 18  1  0
 17 19  2  0
 17 20  1  0
 20 21  2  0
 19 22  1  0
 21 23  1  0
 22 23  2  0
 21 24  1  0
 24 25  1  0
 23 26  1  0
 25 26  2  0
 25 27  1  0
M  END
