mac-x0387-mac-x0226
     RDKit          3D

 26 29  0  0  0  0  0  0  0  0999 V2000
   -3.8560   15.3440    1.7150 N   0  0  0  0  0  0  0  0  0  0  0  0
   -2.6440   14.9700    1.1200 C   0  0  0  0  0  0  0  0  0  0  0  0
   -1.6550   14.6900    1.9800 N   0  0  0  0  0  0  0  0  0  0  0  0
   -2.5000   14.9040   -0.2760 C   0  0  0  0  0  0  0  0  0  0  0  0
   -1.2350   14.5330   -0.8000 C   0  0  0  0  0  0  0  0  0  0  0  0
   -0.4600   14.3480    1.4690 C   0  0  0  0  0  0  0  0  0  0  0  0
   -3.5600   15.1940   -1.1660 C   0  0  0  0  0  0  0  0  0  0  0  0
   -0.2060   14.2590    0.1200 C   0  0  0  0  0  0  0  0  0  0  0  0
   -1.0620   14.4580   -2.2030 C   0  0  0  0  0  0  0  0  0  0  0  0
   -3.3850   15.1170   -2.5450 C   0  0  0  0  0  0  0  0  0  0  0  0
    0.2550   14.0670   -2.8290 C   0  0  0  0  0  0  0  0  0  0  0  0
   -2.1460   14.7520   -3.0600 C   0  0  0  0  0  0  0  0  0  0  0  0
    0.7720   12.9040   -2.1540 O   0  0  0  0  0  0  0  0  0  0  0  0
    0.5030   11.7070   -2.7320 C   0  0  0  0  0  0  0  0  0  0  0  0
    0.2020   10.6680   -2.1190 O   0  0  0  0  0  0  0  0  0  0  0  0
    0.6360   11.7610   -4.1750 C   0  0  0  0  0  0  0  0  0  0  0  0
    1.4350   12.5960   -4.9850 C   0  0  0  0  0  0  0  0  0  0  0  0
   -0.0260   10.9570   -5.0770 C   0  0  0  0  0  0  0  0  0  0  0  0
    1.2960   12.3380   -6.2870 N   0  0  0  0  0  0  0  0  0  0  0  0
    0.3920   11.3120   -6.3410 N   0  0  0  0  0  0  0  0  0  0  0  0
   -0.0110   10.7310   -7.5780 C   0  0  0  0  0  0  0  0  0  0  0  0
   -1.1680    9.9580   -7.6880 C   0  0  0  0  0  0  0  0  0  0  0  0
    0.7700   10.9260   -8.7120 C   0  0  0  0  0  0  0  0  0  0  0  0
   -1.5150    9.4010   -8.9260 C   0  0  0  0  0  0  0  0  0  0  0  0
    0.4330   10.3790   -9.9410 C   0  0  0  0  0  0  0  0  0  0  0  0
   -0.7160    9.6120  -10.0510 C   0  0  0  0  0  0  0  0  0  0  0  0
  1  2  1  0
  2  3  2  0
  2  4  1  0
  4  5  2  0
  3  6  1  0
  4  7  1  0
  5  8  1  0
  6  8  2  0
  5  9  1  0
  7 10  2  0
  9 11  1  0
  9 12  2  0
 10 12  1  0
 11 13  1  0
 13 14  1  0
 14 15  2  0
 14 16  1  0
 16 17  1  0
 16 18  2  0
 17 19  2  0
 18 20  1  0
 19 20  1  0
 20 21  1  0
 21 22  2  0
 21 23  1  0
 22 24  1  0
 23 25  2  0
 24 26  2  0
 25 26  1  0
M  END
