mac-x0223-diamond-x0855_0_A
     RDKit          3D

 19 20  0  0  0  0  0  0  0  0999 V2000
    1.1570   18.2100   -4.5040 C   0  0  0  0  0  0  0  0  0  0  0  0
    0.4950   17.5550   -5.5390 O   0  0  0  0  0  0  0  0  0  0  0  0
   -0.4060   16.6550   -5.1000 C   0  0  0  0  0  0  0  0  0  0  0  0
   -1.7570   16.8890   -4.8890 C   0  0  0  0  0  0  0  0  0  0  0  0
    0.1240   15.3650   -4.8340 C   0  0  0  0  0  0  0  0  0  0  0  0
   -2.3120   18.1120   -5.0990 O   0  0  0  0  0  0  0  0  0  0  0  0
   -2.5910   15.8880   -4.4470 C   0  0  0  0  0  0  0  0  0  0  0  0
   -0.7360   14.3450   -4.3630 C   0  0  0  0  0  0  0  0  0  0  0  0
   -0.3910   12.9090   -3.9910 C   0  0  2  0  0  0  0  0  0  0  0  0
   -2.0810   14.6390   -4.1900 C   0  0  0  0  0  0  0  0  0  0  0  0
    0.7400   12.4810   -3.0980 C   0  0  0  0  0  0  0  0  0  0  0  0
   -0.9320   11.8630   -4.8620 N   0  0  0  0  0  0  0  0  0  0  0  0
    0.9740   11.3090   -2.9030 O   0  0  0  0  0  0  0  0  0  0  0  0
    1.4590   13.4310   -2.4620 O   0  0  0  0  0  0  0  0  0  0  0  0
   -0.3270   11.0640   -5.8060 C   0  0  0  0  0  0  0  0  0  0  0  0
   -2.2510   11.6150   -4.7270 N   0  0  0  0  0  0  0  0  0  0  0  0
   -1.3450   10.2610   -6.2760 C   0  0  0  0  0  0  0  0  0  0  0  0
   -2.4920   10.6400   -5.5880 C   0  0  0  0  0  0  0  0  0  0  0  0
   -1.3050    8.9110   -7.5600 Br  0  0  0  0  0  0  0  0  0  0  0  0
  1  2  1  0
  2  3  1  0
  3  4  2  0
  3  5  1  0
  4  6  1  0
  4  7  1  0
  5  8  2  0
  8  9  1  0
  7 10  2  0
  8 10  1  0
  9 11  1  6
  9 12  1  0
 11 13  2  0
 11 14  1  0
 12 15  1  0
 12 16  1  0
 15 17  2  0
 16 18  2  0
 17 18  1  0
 17 19  1  0
M  END
