mac-x1493-mac-x0567
     RDKit          3D

 18 20  0  0  0  0  0  0  0  0999 V2000
   -1.0940   14.7390   -1.6650 O   0  0  0  0  0  0  0  0  0  0  0  0
   -2.2420   14.9140   -2.3420 C   0  0  0  0  0  0  0  0  0  0  0  0
   -2.1860   15.2500   -3.5190 O   0  0  0  0  0  0  0  0  0  0  0  0
   -3.5140   14.6590   -1.5720 C   0  0  1  0  0  0  0  0  0  0  0  0
   -3.4850   14.7430   -0.0150 C   0  0  2  0  0  0  0  0  0  0  0  0
   -4.7040   15.3970   -2.1180 C   0  0  0  0  0  0  0  0  0  0  0  0
   -4.9330   14.6920    0.5070 C   0  0  0  0  0  0  0  0  0  0  0  0
   -5.9070   14.6900   -1.7420 N   0  0  0  0  0  0  0  0  0  0  0  0
   -2.8520   15.8740    0.7100 N   0  0  0  0  0  0  0  0  0  0  0  0
   -2.6340   13.5780    0.4510 C   0  0  0  0  0  0  0  0  0  0  0  0
   -6.0540   14.6650   -0.3520 C   0  0  0  0  0  0  0  0  0  0  0  0
   -5.1610   14.6740    1.8860 C   0  0  0  0  0  0  0  0  0  0  0  0
   -1.2970   14.1060    0.9830 C   0  0  2  0  0  0  0  0  0  0  0  0
   -1.5600   15.4790    1.2700 N   0  0  0  0  0  0  0  0  0  0  0  0
   -0.1740   14.0260    0.0640 N   0  0  0  0  0  0  0  0  0  0  0  0
   -7.3440   14.6150    0.1900 C   0  0  0  0  0  0  0  0  0  0  0  0
   -6.4470   14.6270    2.4150 C   0  0  0  0  0  0  0  0  0  0  0  0
   -7.5430   14.5950    1.5700 C   0  0  0  0  0  0  0  0  0  0  0  0
  1  2  1  0
  2  3  2  0
  4  2  1  6
  4  5  1  0
  4  6  1  0
  5  7  1  0
  6  8  1  0
  5  9  1  0
  5 10  1  1
  7 11  2  0
  8 11  1  0
  7 12  1  0
 10 13  1  0
  9 14  1  0
 13 14  1  0
 13 15  1  6
 11 16  1  0
 12 17  2  0
 16 18  2  0
 17 18  1  0
M  END
