mac-x0439-mac-x0303
     RDKit          3D

 29 32  0  0  0  0  0  0  0  0999 V2000
   -3.1600   15.7700   -5.5510 Cl  0  0  0  0  0  0  0  0  0  0  0  0
   -1.7760   16.7820   -5.3820 C   0  0  0  0  0  0  0  0  0  0  0  0
   -0.8780   16.5750   -4.2200 C   0  0  1  0  0  0  0  0  0  0  0  0
   -1.5000   17.7630   -6.2600 C   0  0  0  0  0  0  0  0  0  0  0  0
   -0.5110   15.2840   -3.5780 C   0  0  0  0  0  0  0  0  0  0  0  0
    0.5240   17.0040   -4.5580 C   0  0  0  0  0  0  0  0  0  0  0  0
   -0.3120   18.5930   -6.1190 C   0  0  0  0  0  0  0  0  0  0  0  0
    0.8280   15.1890   -3.5210 C   0  0  0  0  0  0  0  0  0  0  0  0
    1.4630   16.2270   -4.1340 N   0  0  0  0  0  0  0  0  0  0  0  0
    0.7100   18.2560   -5.3080 C   0  0  0  0  0  0  0  0  0  0  0  0
    1.5660   14.0710   -2.8540 C   0  0  0  0  0  0  0  0  0  0  0  0
    2.5210   13.5290   -3.6400 O   0  0  0  0  0  0  0  0  0  0  0  0
    1.4650   13.5670   -1.6900 N   0  0  0  0  0  0  0  0  0  0  0  0
    0.5240   14.0670   -0.6830 C   0  0  0  0  0  0  0  0  0  0  0  0
   -0.9250   14.0680   -1.1590 C   0  0  0  0  0  0  0  0  0  0  0  0
   -1.5940   15.4570   -1.0690 C   0  0  0  0  0  0  0  0  0  0  0  0
   -3.0960   15.3320   -0.9700 C   0  0  0  0  0  0  0  0  0  0  0  0
   -3.9220   15.4390   -2.1000 C   0  0  0  0  0  0  0  0  0  0  0  0
   -3.6670   15.0990    0.2870 C   0  0  0  0  0  0  0  0  0  0  0  0
   -5.0530   14.9750    0.3890 C   0  0  0  0  0  0  0  0  0  0  0  0
   -5.3200   15.3170   -2.0120 C   0  0  0  0  0  0  0  0  0  0  0  0
   -5.8440   15.0830   -0.7430 C   0  0  0  0  0  0  0  0  0  0  0  0
   -5.8150   14.7480    1.4930 N   0  0  0  0  0  0  0  0  0  0  0  0
   -7.0590   14.7150    1.0800 C   0  0  0  0  0  0  0  0  0  0  0  0
   -7.1260   14.9110   -0.2800 N   0  0  0  0  0  0  0  0  0  0  0  0
   -8.4710   14.4700    2.0970 S   0  0  0  0  0  0  0  0  0  0  0  0
   -8.1880   13.0110    2.9170 N   0  0  0  0  0  0  0  0  0  0  0  0
   -8.4350   15.4820    3.1260 O   0  0  0  0  0  0  0  0  0  0  0  0
   -9.6160   14.2490    1.2480 O   0  0  0  0  0  0  0  0  0  0  0  0
  1  2  1  0
  2  3  1  0
  2  4  2  0
  3  5  1  6
  3  6  1  0
  4  7  1  0
  5  8  2  0
  6  9  2  0
  8  9  1  0
  6 10  1  0
  7 10  2  0
  8 11  1  0
 11 12  1  0
 11 13  2  3
 13 14  1  0
 14 15  1  0
 15 16  1  0
 16 17  1  0
 17 18  2  0
 17 19  1  0
 19 20  2  0
 18 21  1  0
 20 22  1  0
 21 22  2  0
 20 23  1  0
 23 24  2  0
 22 25  1  0
 24 25  1  0
 24 26  1  0
 26 27  1  0
 26 28  2  0
 26 29  2  0
M  END
