mac-x0392-mac-x0190
     RDKit          3D

 19 21  0  0  0  0  0  0  0  0999 V2000
   -0.3170   14.1380    0.9920 N   0  0  0  0  0  0  0  0  0  0  0  0
   -1.4830   14.4000    0.2850 C   0  0  0  0  0  0  0  0  0  0  0  0
   -2.7520   14.4490    0.8480 C   0  0  0  0  0  0  0  0  0  0  0  0
   -1.4220   14.6420   -1.1790 C   0  0  0  0  0  0  0  0  0  0  0  0
   -0.2640   14.5900   -2.0870 C   0  0  0  0  0  0  0  0  0  0  0  0
   -2.5010   14.9290   -1.8460 C   0  0  0  0  0  0  0  0  0  0  0  0
   -3.9400   14.7130    0.0980 N   0  0  0  0  0  0  0  0  0  0  0  0
   -0.3960   14.5130   -3.3040 O   0  0  0  0  0  0  0  0  0  0  0  0
    0.9510   14.6350   -1.5370 O   0  0  0  0  0  0  0  0  0  0  0  0
   -3.7660   15.0140   -1.2620 C   0  0  0  0  0  0  0  0  0  0  0  0
   -5.3170   14.6110    0.4570 C   0  0  0  0  0  0  0  0  0  0  0  0
   -6.3860   15.0250   -0.5090 C   0  0  0  0  0  0  0  0  0  0  0  0
   -5.9770   14.2090    1.5120 N   0  0  0  0  0  0  0  0  0  0  0  0
   -4.7130   15.3520   -2.1110 C   0  0  0  0  0  0  0  0  0  0  0  0
   -7.3290   14.4160    1.1970 C   0  0  0  0  0  0  0  0  0  0  0  0
   -7.6050   14.9200    0.0460 N   0  0  0  0  0  0  0  0  0  0  0  0
   -6.0700   15.4050   -1.7220 C   0  0  0  0  0  0  0  0  0  0  0  0
   -8.3860   14.0600    2.2110 C   0  0  0  0  0  0  0  0  0  0  0  0
   -9.2340   15.1590    2.5060 O   0  0  0  0  0  0  0  0  0  0  0  0
  1  2  1  0
  2  3  2  0
  2  4  1  0
  4  5  1  0
  4  6  2  0
  3  7  1  0
  5  8  2  0
  5  9  1  0
  6 10  1  0
  7 10  1  0
  7 11  1  0
 11 12  1  0
 11 13  2  0
 10 14  2  0
 13 15  1  0
 12 16  1  0
 15 16  2  0
 12 17  2  0
 14 17  1  0
 15 18  1  0
 18 19  1  0
M  END
