mac-x0319-mac-x0224
     RDKit          3D

 22 23  0  0  0  0  0  0  0  0999 V2000
    0.6140   10.3990   -2.4760 O   0  0  0  0  0  0  0  0  0  0  0  0
    0.6310   11.7520   -2.6290 C   0  0  0  0  0  0  0  0  0  0  0  0
    0.1620   12.4050   -1.6270 N   0  0  0  0  0  0  0  0  0  0  0  0
    1.1690   12.3610   -3.9380 C   0  0  0  0  0  0  0  0  0  0  0  0
    0.0820   13.8570   -1.6960 C   0  0  1  0  0  0  0  0  0  0  0  0
    0.5840   13.7150   -4.2910 C   0  0  0  0  0  0  0  0  0  0  0  0
    0.6400   14.3270   -2.9010 O   0  0  0  0  0  0  0  0  0  0  0  0
    1.2840   14.9230   -4.0670 C   0  0  0  0  0  0  0  0  0  0  0  0
   -0.7000   13.7790   -4.8440 C   0  0  0  0  0  0  0  0  0  0  0  0
   -1.3500   14.3580   -1.6450 C   0  0  0  0  0  0  0  0  0  0  0  0
    0.6770   16.1450   -4.3860 C   0  0  0  0  0  0  0  0  0  0  0  0
   -1.2830   15.0130   -5.1560 C   0  0  0  0  0  0  0  0  0  0  0  0
   -1.8830   14.6650   -0.3940 C   0  0  0  0  0  0  0  0  0  0  0  0
   -2.1910   14.5410   -2.7620 C   0  0  0  0  0  0  0  0  0  0  0  0
    1.3510   17.3010   -4.1540 O   0  0  0  0  0  0  0  0  0  0  0  0
   -1.7570   14.2580   -4.0090 O   0  0  0  0  0  0  0  0  0  0  0  0
   -0.5950   16.1950   -4.9240 C   0  0  0  0  0  0  0  0  0  0  0  0
   -3.1850   15.1360   -0.2510 C   0  0  0  0  0  0  0  0  0  0  0  0
   -3.4990   15.0130   -2.6300 C   0  0  0  0  0  0  0  0  0  0  0  0
   -3.8340   15.5260    1.3480 S   0  0  0  0  0  0  0  0  0  0  0  0
   -3.9950   15.3110   -1.3730 C   0  0  0  0  0  0  0  0  0  0  0  0
   -5.4580   14.7460    1.2200 C   0  0  0  0  0  0  0  0  0  0  0  0
  1  2  1  0
  2  3  2  3
  2  4  1  0
  3  5  1  0
  4  6  1  0
  5  7  1  6
  6  8  2  0
  6  9  1  0
  5 10  1  0
  8 11  1  0
  9 12  2  0
 10 13  2  0
 10 14  1  0
 11 15  1  0
 14 16  1  0
 11 17  2  0
 12 17  1  0
 13 18  1  0
 14 19  2  0
 18 20  1  0
 18 21  2  0
 19 21  1  0
 20 22  1  0
M  END
