mac-x0402-mac-x0161
     RDKit          3D

 23 26  0  0  0  0  0  0  0  0999 V2000
   -1.6370   14.8410   -2.9640 C   0  0  0  0  0  0  0  0  0  0  0  0
   -2.7450   15.0160   -1.8690 C   0  0  1  0  0  0  0  0  0  0  0  0
   -4.1780   14.5750   -2.2950 C   0  0  0  0  0  0  0  0  0  0  0  0
   -1.1690   13.4920   -3.4000 C   0  0  0  0  0  0  0  0  0  0  0  0
   -2.3760   14.7470   -0.3390 C   0  0  1  0  0  0  0  0  0  0  0  0
   -1.5130   12.6520   -4.4350 C   0  0  0  0  0  0  0  0  0  0  0  0
   -0.1810   12.8950   -2.6660 O   0  0  0  0  0  0  0  0  0  0  0  0
   -3.6150   14.7860    0.5540 C   0  0  0  0  0  0  0  0  0  0  0  0
   -5.3240   14.7920   -1.2830 C   0  0  2  0  0  0  0  0  0  0  0  0
   -1.5540   13.5720   -0.0120 N   0  0  0  0  0  0  0  0  0  0  0  0
   -1.3830   15.8520    0.0520 C   0  0  0  0  0  0  0  0  0  0  0  0
    0.1260   11.6570   -3.2130 N   0  0  0  0  0  0  0  0  0  0  0  0
   -0.6830   11.5340   -4.2650 C   0  0  0  0  0  0  0  0  0  0  0  0
   -5.9290   16.0810   -1.3460 N   0  0  0  0  0  0  0  0  0  0  0  0
   -0.6690   10.4350   -5.0550 O   0  0  0  0  0  0  0  0  0  0  0  0
   -4.9150   14.7980    0.1210 C   0  0  0  0  0  0  0  0  0  0  0  0
   -3.6440   14.8170    2.2650 S   0  0  0  0  0  0  0  0  0  0  0  0
   -0.0550   15.2630    0.0170 N   0  0  0  0  0  0  0  0  0  0  0  0
   -0.3330   14.0180    0.6430 C   0  0  0  0  0  0  0  0  0  0  0  0
   -1.7440   10.3700   -5.9820 C   0  0  0  0  0  0  0  0  0  0  0  0
   -5.3590   14.8510    2.2660 C   0  0  0  0  0  0  0  0  0  0  0  0
   -5.9040   14.8330    1.0850 N   0  0  0  0  0  0  0  0  0  0  0  0
   -6.0780   14.8900    3.4030 N   0  0  0  0  0  0  0  0  0  0  0  0
  2  1  1  6
  2  3  1  0
  1  4  1  0
  2  5  1  0
  4  6  2  0
  4  7  1  0
  5  8  1  0
  3  9  1  0
  5 10  1  0
  5 11  1  1
  7 12  1  0
  6 13  1  0
 12 13  2  0
  9 14  1  6
 13 15  1  0
  8 16  2  0
  9 16  1  0
  8 17  1  0
 11 18  1  0
 10 19  1  0
 18 19  1  0
 15 20  1  0
 17 21  1  0
 16 22  1  0
 21 22  2  0
 21 23  1  0
M  END
