mac-x0451-mac-x0142
     RDKit          3D

 24 28  0  0  0  0  0  0  0  0999 V2000
   -6.5720   14.4890    2.4830 N   0  0  0  0  0  0  0  0  0  0  0  0
   -5.7160   14.5930    1.4590 C   0  0  0  0  0  0  0  0  0  0  0  0
   -6.1600   14.7940    0.2640 N   0  0  0  0  0  0  0  0  0  0  0  0
   -3.9870   14.4880    1.6050 S   0  0  0  0  0  0  0  0  0  0  0  0
   -5.1080   14.8950   -0.5830 C   0  0  0  0  0  0  0  0  0  0  0  0
   -3.8240   14.7670   -0.0720 C   0  0  0  0  0  0  0  0  0  0  0  0
   -5.3620   15.1360   -1.9460 C   0  0  0  0  0  0  0  0  0  0  0  0
   -2.5550   14.9270   -0.9600 C   0  0  1  0  0  0  0  0  0  0  0  0
   -4.3690   15.3270   -2.8100 C   0  0  0  0  0  0  0  0  0  0  0  0
   -2.9310   15.3120   -2.4120 C   0  0  1  0  0  0  0  0  0  0  0  0
   -1.9860   16.0140   -0.0610 C   0  0  0  0  0  0  0  0  0  0  0  0
   -1.1270   14.3380   -1.1670 C   0  0  2  0  0  0  0  0  0  0  0  0
   -2.2420   16.3900   -2.8350 F   0  0  0  0  0  0  0  0  0  0  0  0
   -0.6990   13.7630   -2.4630 N   0  0  0  0  0  0  0  0  0  0  0  0
   -0.5750   13.6310   -0.0520 N   0  0  0  0  0  0  0  0  0  0  0  0
   -1.4190   15.4280    1.1790 N   0  0  0  0  0  0  0  0  0  0  0  0
   -1.8030   13.6550   -3.4630 C   0  0  0  0  0  0  0  0  0  0  0  0
    0.3700   14.5130   -3.1380 C   0  0  0  0  0  0  0  0  0  0  0  0
   -0.2530   14.5930    0.9580 C   0  0  0  0  0  0  0  0  0  0  0  0
    0.9070   13.6030   -4.1990 C   0  0  0  0  0  0  0  0  0  0  0  0
   -1.3790   12.9020   -4.7410 C   0  0  0  0  0  0  0  0  0  0  0  0
    2.3790   13.2970   -4.3650 C   0  0  0  0  0  0  0  0  0  0  0  0
    1.5010   12.3570   -3.6060 C   0  0  0  0  0  0  0  0  0  0  0  0
   -0.0520   13.3800   -5.3260 C   0  0  0  0  0  0  0  0  0  0  0  0
  1  2  1  0
  2  3  2  0
  2  4  1  0
  3  5  1  0
  4  6  1  0
  5  6  2  0
  5  7  1  0
  6  8  1  0
  7  9  2  0
  8 10  1  0
  9 10  1  0
  8 11  1  1
  8 12  1  0
 10 13  1  1
 12 14  1  6
 12 15  1  0
 11 16  1  0
 14 17  1  0
 14 18  1  0
 15 19  1  0
 16 19  1  0
 20 18  1  0
 17 21  1  0
 20 22  1  0
 20 23  1  0
 22 23  1  0
 20 24  1  0
 21 24  1  0
M  END
