mac-x0228-diamond-x0104_0_A
     RDKit          3D

 21 23  0  0  0  0  0  0  0  0999 V2000
   -2.1010   14.7200   -0.7540 O   0  0  0  0  0  0  0  0  0  0  0  0
   -3.2880   14.2420   -1.3530 C   0  0  0  0  0  0  0  0  0  0  0  0
   -2.9570   14.2100   -2.7410 O   0  0  0  0  0  0  0  0  0  0  0  0
   -3.5520   12.9320   -0.8790 O   0  0  0  0  0  0  0  0  0  0  0  0
   -4.5280   15.1190   -1.1210 C   0  0  2  0  0  0  0  0  0  0  0  0
   -5.8600   14.5620   -0.4490 C   0  0  2  0  0  0  0  0  0  0  0  0
   -5.1060   15.3520   -2.4940 C   0  0  0  0  0  0  0  0  0  0  0  0
   -4.9440   12.7860   -0.4030 O   0  0  0  0  0  0  0  0  0  0  0  0
   -6.8660   15.4700   -0.9600 C   0  0  0  0  0  0  0  0  0  0  0  0
   -6.4490   15.8970   -2.1100 C   0  0  0  0  0  0  0  0  0  0  0  0
   -6.0860   14.0670    1.0090 C   0  0  1  0  0  0  0  0  0  0  0  0
   -5.0310   13.0360    1.0260 C   0  0  0  0  0  0  0  0  0  0  0  0
   -6.4840   14.8490    2.2400 N   0  0  0  0  0  0  0  0  0  0  0  0
   -7.7080   15.0360    2.9100 C   0  0  0  0  0  0  0  0  0  0  0  0
   -7.7270   15.0090    4.2900 N   0  0  0  0  0  0  0  0  0  0  0  0
   -8.7000   15.2180    2.2050 O   0  0  0  0  0  0  0  0  0  0  0  0
   -8.8550   15.0650    5.1210 C   0  0  0  0  0  0  0  0  0  0  0  0
   -8.9900   15.1740    6.4910 C   0  0  0  0  0  0  0  0  0  0  0  0
  -10.3760   14.9860    4.3450 S   0  0  0  0  0  0  0  0  0  0  0  0
  -11.2240   15.0930    5.8360 C   0  0  0  0  0  0  0  0  0  0  0  0
  -10.3630   15.1890    6.9050 C   0  0  0  0  0  0  0  0  0  0  0  0
  2  1  1  0
  2  3  1  0
  2  4  1  0
  2  5  1  0
  5  6  1  0
  5  7  1  6
  4  8  1  0
  6  9  1  1
  7 10  1  0
  9 10  2  0
  6 11  1  0
  8 12  1  0
 11 12  1  0
 11 13  1  1
 13 14  1  0
 14 15  1  0
 14 16  2  0
 15 17  1  0
 17 18  2  0
 17 19  1  0
 19 20  1  0
 18 21  1  0
 20 21  2  0
M  END
