mac-x0576-diamond-x0587_0_A
     RDKit          3D

 25 27  0  0  0  0  0  0  0  0999 V2000
    0.2690   15.1790    0.8640 N   0  0  0  0  0  0  0  0  0  0  0  0
   -0.4520   14.2230    0.1250 C   0  0  1  0  0  0  0  0  0  0  0  0
   -1.5400   13.9260    0.9820 N   0  0  0  0  0  0  0  0  0  0  0  0
   -0.8630   14.9040   -1.0520 N   0  0  0  0  0  0  0  0  0  0  0  0
   -2.1790   15.0120   -1.4870 C   0  0  0  0  0  0  0  0  0  0  0  0
   -2.7580   13.6510    0.2550 C   0  0  2  0  0  0  0  0  0  0  0  0
   -2.4100   15.1970   -2.6780 O   0  0  0  0  0  0  0  0  0  0  0  0
   -3.2810   14.8740   -0.4470 C   0  0  1  0  0  0  0  0  0  0  0  0
   -3.8760   13.1670    0.9780 N   0  0  0  0  0  0  0  0  0  0  0  0
   -4.8430   14.1040    1.2550 C   0  0  0  0  0  0  0  0  0  0  0  0
   -3.4990   15.9820    0.5830 N   0  0  0  0  0  0  0  0  0  0  0  0
   -4.2000   15.3720    1.7680 C   0  0  0  0  0  0  0  0  0  0  0  0
   -6.1440   13.8990    1.0070 C   0  0  0  0  0  0  0  0  0  0  0  0
   -7.3660   14.6720    1.1640 C   0  0  0  0  0  0  0  0  0  0  0  0
   -6.2200   12.7410    0.3050 N   0  0  0  0  0  0  0  0  0  0  0  0
   -8.1350   15.0970    2.3720 C   0  0  0  0  0  0  0  0  0  0  0  0
   -7.8070   14.9950   -0.0520 C   0  0  0  0  0  0  0  0  0  0  0  0
   -6.6050   13.1690   -0.8860 C   0  0  0  0  0  0  0  0  0  0  0  0
   -7.4660   15.1130    3.5610 N   0  0  0  0  0  0  0  0  0  0  0  0
   -9.3160   15.4240    2.3040 O   0  0  0  0  0  0  0  0  0  0  0  0
   -6.6130   12.2770   -2.1180 C   0  0  0  0  0  0  0  0  0  0  0  0
   -7.0110   14.5050   -1.0630 N   0  0  0  0  0  0  0  0  0  0  0  0
   -5.6670   12.7510   -2.9840 F   0  0  0  0  0  0  0  0  0  0  0  0
   -7.7820   12.2800   -2.8000 F   0  0  0  0  0  0  0  0  0  0  0  0
   -6.2660   11.0000   -1.8640 F   0  0  0  0  0  0  0  0  0  0  0  0
  2  1  1  1
  2  3  1  0
  2  4  1  0
  4  5  1  0
  6  3  1  1
  5  7  2  0
  5  8  1  0
  6  8  1  0
  6  9  1  0
  9 10  1  0
  8 11  1  1
 10 12  1  0
 11 12  1  0
 10 13  2  3
 13 14  1  0
 13 15  1  0
 14 16  1  0
 14 17  2  0
 15 18  2  0
 16 19  1  0
 16 20  2  0
 18 21  1  0
 17 22  1  0
 18 22  1  0
 21 23  1  0
 21 24  1  0
 21 25  1  0
M  END
