mac-x0396-mac-x0404
     RDKit          3D

 27 29  0  0  0  0  0  0  0  0999 V2000
   -3.1820   15.0590    1.5700 N   0  0  0  0  0  0  0  0  0  0  0  0
   -3.5770   14.9030    0.2650 C   0  0  0  0  0  0  0  0  0  0  0  0
   -2.7650   14.8090   -0.7270 N   0  0  0  0  0  0  0  0  0  0  0  0
   -5.0520   14.8320    0.0230 C   0  0  0  0  0  0  0  0  0  0  0  0
   -1.3150   14.8790   -0.4690 C   0  0  0  0  0  0  0  0  0  0  0  0
   -5.6320   14.9300   -1.2370 C   0  0  0  0  0  0  0  0  0  0  0  0
   -5.9090   14.6560    1.1050 C   0  0  0  0  0  0  0  0  0  0  0  0
   -0.7380   13.5060   -0.2870 C   0  0  0  0  0  0  0  0  0  0  0  0
   -6.9740   14.8580   -1.4500 N   0  0  0  0  0  0  0  0  0  0  0  0
   -7.2820   14.5770    0.9200 C   0  0  0  0  0  0  0  0  0  0  0  0
   -0.6130   12.7680   -1.6030 C   0  0  0  0  0  0  0  0  0  0  0  0
   -7.7640   14.6830   -0.3680 C   0  0  0  0  0  0  0  0  0  0  0  0
    0.7270   12.6820   -2.0740 O   0  0  0  0  0  0  0  0  0  0  0  0
    0.8150   11.8980   -3.1710 C   0  0  0  0  0  0  0  0  0  0  0  0
    0.4820   10.7200   -3.1740 O   0  0  0  0  0  0  0  0  0  0  0  0
    1.3480   12.6630   -4.3770 C   0  0  0  0  0  0  0  0  0  0  0  0
    1.1930   14.0730   -4.2290 O   0  0  0  0  0  0  0  0  0  0  0  0
   -0.0490   14.5490   -4.6030 C   0  0  0  0  0  0  0  0  0  0  0  0
   -0.1990   15.9050   -4.9260 C   0  0  0  0  0  0  0  0  0  0  0  0
   -1.1390   13.6800   -4.6540 C   0  0  0  0  0  0  0  0  0  0  0  0
   -1.4680   16.3960   -5.3040 C   0  0  0  0  0  0  0  0  0  0  0  0
   -2.3940   14.1680   -5.0260 C   0  0  0  0  0  0  0  0  0  0  0  0
    0.8770   16.7820   -4.8840 C   0  0  0  0  0  0  0  0  0  0  0  0
   -2.5580   15.5160   -5.3470 C   0  0  0  0  0  0  0  0  0  0  0  0
   -1.6070   17.7500   -5.6310 C   0  0  0  0  0  0  0  0  0  0  0  0
    0.7370   18.1230   -5.2110 C   0  0  0  0  0  0  0  0  0  0  0  0
   -0.5150   18.6070   -5.5870 C   0  0  0  0  0  0  0  0  0  0  0  0
  1  2  1  0
  2  3  2  3
  2  4  1  0
  3  5  1  0
  4  6  2  0
  4  7  1  0
  5  8  1  0
  6  9  1  0
  7 10  2  0
  8 11  1  0
  9 12  2  0
 10 12  1  0
 11 13  1  0
 13 14  1  0
 14 15  2  0
 14 16  1  0
 16 17  1  0
 17 18  1  0
 18 19  1  0
 18 20  2  0
 19 21  2  0
 20 22  1  0
 19 23  1  0
 21 24  1  0
 22 24  2  0
 21 25  1  0
 23 26  2  0
 25 27  2  0
 26 27  1  0
M  END
