mac-x0303-mac-x0124
     RDKit          3D

 24 27  0  0  0  0  0  0  0  0999 V2000
   -8.6930   12.8260    2.8180 N   0  0  0  0  0  0  0  0  0  0  0  0
   -8.9610   14.3690    2.2120 S   0  0  0  0  0  0  0  0  0  0  0  0
   -8.7230   15.3320    3.2620 O   0  0  0  0  0  0  0  0  0  0  0  0
  -10.1410   14.3760    1.3910 O   0  0  0  0  0  0  0  0  0  0  0  0
   -7.6500   14.6560    1.0980 C   0  0  0  0  0  0  0  0  0  0  0  0
   -7.8120   14.8940   -0.2400 N   0  0  0  0  0  0  0  0  0  0  0  0
   -6.4040   14.6740    1.4610 N   0  0  0  0  0  0  0  0  0  0  0  0
   -6.5730   15.0880   -0.7730 C   0  0  0  0  0  0  0  0  0  0  0  0
   -5.7350   14.9450    0.3170 C   0  0  0  0  0  0  0  0  0  0  0  0
   -6.1280   15.3670   -2.0570 C   0  0  0  0  0  0  0  0  0  0  0  0
   -4.3930   15.0780    0.1740 C   0  0  0  0  0  0  0  0  0  0  0  0
   -3.5490   14.9340    1.2230 N   0  0  0  0  0  0  0  0  0  0  0  0
   -4.7580   15.5060   -2.2010 C   0  0  0  0  0  0  0  0  0  0  0  0
   -3.9180   15.3670   -1.1060 C   0  0  0  0  0  0  0  0  0  0  0  0
   -2.2620   14.8390    0.8760 C   0  0  0  0  0  0  0  0  0  0  0  0
   -2.0460   14.7860   -0.5170 C   0  0  0  0  0  0  0  0  0  0  0  0
   -1.2350   14.8140    1.6930 N   0  0  0  0  0  0  0  0  0  0  0  0
   -2.8750   14.7770   -1.6900 C   0  0  0  0  0  0  0  0  0  0  0  0
   -0.7540   14.7340   -0.9610 C   0  0  0  0  0  0  0  0  0  0  0  0
   -0.0370   14.7640    1.1310 C   0  0  0  0  0  0  0  0  0  0  0  0
   -0.7710   14.7090   -2.3380 N   0  0  0  0  0  0  0  0  0  0  0  0
   -2.0590   14.7300   -2.7930 C   0  0  0  0  0  0  0  0  0  0  0  0
    0.3200   14.7190   -0.1790 N   0  0  0  0  0  0  0  0  0  0  0  0
    0.4040   14.6700   -3.1690 C   0  0  0  0  0  0  0  0  0  0  0  0
  2  1  1  0
  2  3  2  0
  2  4  2  0
  2  5  1  0
  5  6  1  0
  5  7  2  0
  6  8  1  0
  7  9  1  0
  8  9  2  0
  8 10  1  0
  9 11  1  0
 11 12  1  0
 10 13  2  0
 11 14  2  0
 13 14  1  0
 12 15  1  0
 15 16  1  0
 15 17  2  0
 16 18  1  0
 16 19  2  0
 17 20  1  0
 19 21  1  0
 18 22  2  0
 21 22  1  0
 19 23  1  0
 20 23  2  0
 21 24  1  0
M  END
