mac-x0357-diamond-x0844_0_A
     RDKit          3D

 20 21  0  0  0  0  0  0  0  0999 V2000
    2.3330   13.2480   -4.5000 C   0  0  0  0  0  0  0  0  0  0  0  0
    1.0260   12.5730   -4.8130 C   0  0  0  0  0  0  0  0  0  0  0  0
    0.8690   11.8900   -6.0250 C   0  0  0  0  0  0  0  0  0  0  0  0
   -0.0770   12.5860   -3.9320 C   0  0  0  0  0  0  0  0  0  0  0  0
    1.9190   11.8650   -6.8800 O   0  0  0  0  0  0  0  0  0  0  0  0
   -0.0340   13.2780   -2.6270 C   0  0  0  0  0  0  0  0  0  0  0  0
   -1.2700   11.9330   -4.2700 C   0  0  0  0  0  0  0  0  0  0  0  0
   -0.3150   11.2420   -6.3690 C   0  0  0  0  0  0  0  0  0  0  0  0
   -0.8550   14.0820   -2.0430 N   0  0  0  0  0  0  0  0  0  0  0  0
    1.0920   12.9700   -1.9590 O   0  0  0  0  0  0  0  0  0  0  0  0
   -1.3880   11.2620   -5.4880 C   0  0  0  0  0  0  0  0  0  0  0  0
   -2.1190   14.4550   -2.6890 C   0  0  0  0  0  0  0  0  0  0  0  0
   -3.3450   14.1570   -2.0070 O   0  0  0  0  0  0  0  0  0  0  0  0
   -3.9760   15.2160   -1.2620 C   0  0  2  0  0  0  0  0  0  0  0  0
   -3.4640   15.1230    0.1470 C   0  0  0  0  0  0  0  0  0  0  0  0
   -5.5080   15.1670   -1.3800 C   0  0  0  0  0  0  0  0  0  0  0  0
   -4.2490   14.8990    1.2000 C   0  0  0  0  0  0  0  0  0  0  0  0
   -6.2850   14.8830   -0.1100 C   0  0  0  0  0  0  0  0  0  0  0  0
   -7.5140   14.7880   -0.1120 O   0  0  0  0  0  0  0  0  0  0  0  0
   -5.5900   14.7370    1.0570 N   0  0  0  0  0  0  0  0  0  0  0  0
  1  2  1  0
  2  3  2  0
  2  4  1  0
  3  5  1  0
  4  6  1  0
  4  7  2  0
  3  8  1  0
  6  9  2  3
  6 10  1  0
  7 11  1  0
  8 11  2  0
  9 12  1  0
 12 13  1  0
 14 13  1  6
 14 15  1  0
 14 16  1  0
 15 17  2  0
 16 18  1  0
 18 19  2  0
 17 20  1  0
 18 20  1  0
M  END
