mac-x0453-mac-x0344
     RDKit          3D

 23 24  0  0  0  0  0  0  0  0999 V2000
   -6.9870   14.0740    2.3370 N   0  0  0  0  0  0  0  0  0  0  0  0
   -6.0210   13.8570    1.2580 C   0  0  0  0  0  0  0  0  0  0  0  0
   -4.8040   14.7880    1.3650 C   0  0  0  0  0  0  0  0  0  0  0  0
   -3.9760   14.8230    0.1330 C   0  0  0  0  0  0  0  0  0  0  0  0
   -2.6340   14.5470    0.0270 C   0  0  0  0  0  0  0  0  0  0  0  0
   -4.5000   15.1510   -1.0960 N   0  0  0  0  0  0  0  0  0  0  0  0
   -2.3330   14.7120   -1.2940 N   0  0  0  0  0  0  0  0  0  0  0  0
   -3.4930   15.0770   -1.9340 C   0  0  0  0  0  0  0  0  0  0  0  0
   -1.0270   14.5340   -1.9180 C   0  0  0  0  0  0  0  0  0  0  0  0
    0.1860   14.7710   -0.9990 C   0  0  0  0  0  0  0  0  0  0  0  0
    1.4450   14.2460   -1.6920 C   0  0  0  0  0  0  0  0  0  0  0  0
    0.9970   13.0090   -2.2880 N   0  0  0  0  0  0  0  0  0  0  0  0
    0.9720   12.7490   -3.5310 C   0  0  0  0  0  0  0  0  0  0  0  0
    1.4400   13.6420   -4.4190 O   0  0  0  0  0  0  0  0  0  0  0  0
    0.4030   11.4660   -4.1240 C   0  0  0  0  0  0  0  0  0  0  0  0
    0.2310   10.5220   -3.3710 O   0  0  0  0  0  0  0  0  0  0  0  0
    0.1080   11.5320   -5.4620 N   0  0  0  0  0  0  0  0  0  0  0  0
   -0.7650   10.6290   -6.0830 C   0  0  0  0  0  0  0  0  0  0  0  0
   -0.3710   10.0670   -7.2960 C   0  0  0  0  0  0  0  0  0  0  0  0
   -1.9990   10.2710   -5.5370 C   0  0  0  0  0  0  0  0  0  0  0  0
   -1.2040    9.1550   -7.9540 C   0  0  0  0  0  0  0  0  0  0  0  0
   -2.8310    9.3600   -6.1940 C   0  0  0  0  0  0  0  0  0  0  0  0
   -2.4340    8.8030   -7.4020 C   0  0  0  0  0  0  0  0  0  0  0  0
  1  2  1  0
  2  3  1  0
  3  4  1  0
  4  5  2  0
  4  6  1  0
  5  7  1  0
  6  8  2  0
  7  8  1  0
  7  9  1  0
  9 10  1  0
 10 11  1  0
 11 12  1  0
 12 13  2  3
 13 14  1  0
 13 15  1  0
 15 16  2  0
 15 17  1  0
 17 18  1  0
 18 19  2  0
 18 20  1  0
 19 21  1  0
 20 22  2  0
 21 23  2  0
 22 23  1  0
M  END
