mac-x0213-mac-x0301
     RDKit          3D

 23 26  0  0  0  0  0  0  0  0999 V2000
    0.6780   12.8920   -1.4870 O   0  0  0  0  0  0  0  0  0  0  0  0
    0.1950   13.1980   -2.7930 C   0  0  0  0  0  0  0  0  0  0  0  0
    0.8170   12.3150   -3.6710 O   0  0  0  0  0  0  0  0  0  0  0  0
   -1.3320   13.1860   -2.7490 C   0  0  0  0  0  0  0  0  0  0  0  0
    0.2330   14.6540   -3.2290 C   0  0  0  0  0  0  0  0  0  0  0  0
   -1.9900   12.6130   -3.6180 O   0  0  0  0  0  0  0  0  0  0  0  0
   -1.1480   14.7980   -3.9200 C   0  0  0  0  0  0  0  0  0  0  0  0
    1.2090   15.2180   -4.2850 C   0  0  0  0  0  0  0  0  0  0  0  0
   -1.9870   13.9630   -1.6650 C   0  0  0  0  0  0  0  0  0  0  0  0
   -1.0120   16.0410   -4.6580 C   0  0  0  0  0  0  0  0  0  0  0  0
    0.3310   16.3090   -4.8730 C   0  0  0  0  0  0  0  0  0  0  0  0
   -1.4570   14.0410   -0.3940 C   0  0  0  0  0  0  0  0  0  0  0  0
   -3.1880   14.6610   -1.9180 C   0  0  0  0  0  0  0  0  0  0  0  0
   -2.0350   16.8560   -5.0910 C   0  0  0  0  0  0  0  0  0  0  0  0
    0.6790   17.4610   -5.5530 C   0  0  0  0  0  0  0  0  0  0  0  0
   -2.0840   14.7700    0.6000 C   0  0  0  0  0  0  0  0  0  0  0  0
   -3.8240   15.4020   -0.8990 C   0  0  0  0  0  0  0  0  0  0  0  0
   -0.3150   13.4580    0.0740 O   0  0  0  0  0  0  0  0  0  0  0  0
   -1.6930   18.0100   -5.7740 C   0  0  0  0  0  0  0  0  0  0  0  0
   -0.3420   18.3090   -6.0000 C   0  0  0  0  0  0  0  0  0  0  0  0
   -3.2640   15.4550    0.3840 C   0  0  0  0  0  0  0  0  0  0  0  0
   -1.3880   14.7160    1.7760 O   0  0  0  0  0  0  0  0  0  0  0  0
   -0.1350   14.2330    1.2760 C   0  0  0  0  0  0  0  0  0  0  0  0
  2  1  1  0
  2  3  1  0
  2  4  1  0
  2  5  1  0
  4  6  2  0
  5  7  1  0
  5  8  1  0
  4  9  1  0
  7 10  1  0
  8 11  1  0
 10 11  2  0
  9 12  1  0
  9 13  2  0
 10 14  1  0
 11 15  1  0
 12 16  2  0
 13 17  1  0
 12 18  1  0
 14 19  2  0
 15 20  2  0
 19 20  1  0
 16 21  1  0
 17 21  2  0
 16 22  1  0
 18 23  1  0
 22 23  1  0
M  END
