mac-x0373-mac-x0337
     RDKit          3D

 26 28  0  0  0  0  0  0  0  0999 V2000
    0.8390   13.4130   -1.8300 O   0  0  0  0  0  0  0  0  0  0  0  0
   -0.0570   14.3570   -2.1990 C   0  0  0  0  0  0  0  0  0  0  0  0
    0.3200   15.5070   -2.3630 O   0  0  0  0  0  0  0  0  0  0  0  0
   -1.4700   13.8060   -2.3540 C   0  0  2  0  0  0  0  0  0  0  0  0
   -1.6610   12.8790   -3.5410 C   0  0  0  0  0  0  0  0  0  0  0  0
   -2.7450   14.5750   -1.9480 C   0  0  0  0  0  0  0  0  0  0  0  0
   -0.7310   12.7640   -4.5850 C   0  0  0  0  0  0  0  0  0  0  0  0
   -2.8200   12.1020   -3.5830 C   0  0  0  0  0  0  0  0  0  0  0  0
   -3.7710   14.8640   -2.8480 C   0  0  0  0  0  0  0  0  0  0  0  0
   -2.9430   14.9780   -0.6280 C   0  0  0  0  0  0  0  0  0  0  0  0
   -0.9730   11.8770   -5.6360 C   0  0  0  0  0  0  0  0  0  0  0  0
   -3.0610   11.2210   -4.6210 C   0  0  0  0  0  0  0  0  0  0  0  0
   -4.9250   15.5150   -2.4260 C   0  0  0  0  0  0  0  0  0  0  0  0
   -4.0950   15.6510   -0.2470 C   0  0  0  0  0  0  0  0  0  0  0  0
   -2.1220   14.7250    0.3070 N   0  0  0  0  0  0  0  0  0  0  0  0
   -2.1360   11.1040   -5.6520 C   0  0  0  0  0  0  0  0  0  0  0  0
   -5.0850   15.9180   -1.1300 C   0  0  0  0  0  0  0  0  0  0  0  0
   -3.3110   13.9290    1.2090 S   0  0  0  0  0  0  0  0  0  0  0  0
   -4.5620   15.0370    1.0250 N   0  0  0  0  0  0  0  0  0  0  0  0
   -4.0470   12.7710   -0.0300 C   0  0  0  0  0  0  0  0  0  0  0  0
   -3.4390   12.2380   -1.1770 C   0  0  0  0  0  0  0  0  0  0  0  0
   -5.3610   12.3680    0.2380 C   0  0  0  0  0  0  0  0  0  0  0  0
   -4.1080   11.3220   -2.0000 C   0  0  0  0  0  0  0  0  0  0  0  0
   -6.0330   11.4590   -0.5830 C   0  0  0  0  0  0  0  0  0  0  0  0
   -5.4080   10.9180   -1.7060 C   0  0  0  0  0  0  0  0  0  0  0  0
   -6.1200    9.9210   -2.5650 C   0  0  0  0  0  0  0  0  0  0  0  0
  1  2  1  0
  2  3  2  0
  4  2  1  6
  4  5  1  0
  4  6  1  0
  5  7  2  0
  5  8  1  0
  6  9  2  0
  6 10  1  0
  7 11  1  0
  8 12  2  0
  9 13  1  0
 10 14  2  0
 10 15  1  0
 11 16  2  0
 12 16  1  0
 13 17  2  0
 14 17  1  0
 15 18  2  3
 18 19  1  0
 18 20  1  0
 20 21  2  0
 20 22  1  0
 21 23  1  0
 22 24  2  0
 23 25  2  0
 24 25  1  0
 25 26  1  0
M  END
