mac-x0555-mac-x0179
     RDKit          3D

 29 32  0  0  0  0  0  0  0  0999 V2000
   -7.5000   14.4380    2.8880 N   0  0  0  0  0  0  0  0  0  0  0  0
   -6.9510   14.5910    1.6130 C   0  0  0  0  0  0  0  0  0  0  0  0
   -7.7060   14.5940    0.4410 C   0  0  0  0  0  0  0  0  0  0  0  0
   -5.5810   14.7500    1.4680 C   0  0  0  0  0  0  0  0  0  0  0  0
   -5.0090   14.9020    0.2010 C   0  0  0  0  0  0  0  0  0  0  0  0
   -7.1930   14.7410   -0.8070 N   0  0  0  0  0  0  0  0  0  0  0  0
   -5.8590   14.8880   -0.9250 C   0  0  0  0  0  0  0  0  0  0  0  0
   -3.6310   15.0530    0.0470 C   0  0  0  0  0  0  0  0  0  0  0  0
   -5.2790   15.0300   -2.1840 C   0  0  0  0  0  0  0  0  0  0  0  0
   -3.0810   15.1850   -1.2170 C   0  0  0  0  0  0  0  0  0  0  0  0
   -3.8870   15.1730   -2.3470 C   0  0  0  0  0  0  0  0  0  0  0  0
   -3.2480   15.3070   -3.7070 C   0  0  0  0  0  0  0  0  0  0  0  0
   -3.2290   13.9860   -4.4870 C   0  0  0  0  0  0  0  0  0  0  0  0
   -2.4550   12.8550   -3.7850 C   0  0  0  0  0  0  0  0  0  0  0  0
   -2.2280   11.7810   -4.7340 N   0  0  0  0  0  0  0  0  0  0  0  0
   -1.1750   11.4670   -5.3800 C   0  0  0  0  0  0  0  0  0  0  0  0
    0.0960   11.9700   -5.4340 N   0  0  0  0  0  0  0  0  0  0  0  0
   -1.2110   10.3460   -6.3370 C   0  0  0  0  0  0  0  0  0  0  0  0
    0.8190   12.8510   -4.5350 C   0  0  0  0  0  0  0  0  0  0  0  0
    0.7630   11.4600   -6.5130 C   0  0  0  0  0  0  0  0  0  0  0  0
   -0.0230   10.3540   -7.0400 C   0  0  0  0  0  0  0  0  0  0  0  0
   -2.1890    9.4000   -6.5890 C   0  0  0  0  0  0  0  0  0  0  0  0
    1.0140   12.1910   -3.1800 C   0  0  0  0  0  0  0  0  0  0  0  0
    1.8280   11.8390   -6.9310 O   0  0  0  0  0  0  0  0  0  0  0  0
    0.2600    9.4350   -8.0350 C   0  0  0  0  0  0  0  0  0  0  0  0
   -1.9320    8.4530   -7.5910 C   0  0  0  0  0  0  0  0  0  0  0  0
    1.6000   12.9820   -2.2490 O   0  0  0  0  0  0  0  0  0  0  0  0
    0.6790   11.0400   -2.9290 O   0  0  0  0  0  0  0  0  0  0  0  0
   -0.7160    8.4710   -8.3080 C   0  0  0  0  0  0  0  0  0  0  0  0
  1  2  1  0
  2  3  2  0
  2  4  1  0
  4  5  2  0
  3  6  1  0
  5  7  1  0
  6  7  2  0
  5  8  1  0
  7  9  1  0
  8 10  2  0
  9 11  2  0
 10 11  1  0
 11 12  1  0
 12 13  1  0
 13 14  1  0
 14 15  1  0
 15 16  2  3
 16 17  1  0
 16 18  1  0
 17 19  1  0
 17 20  1  0
 18 21  2  0
 20 21  1  0
 18 22  1  0
 19 23  1  0
 20 24  2  0
 21 25  1  0
 22 26  2  0
 23 27  1  0
 23 28  2  0
 25 29  2  0
 26 29  1  0
M  END
