mac-x0161-mac-x0365
     RDKit          3D

 22 24  0  0  0  0  0  0  0  0999 V2000
   -4.3140   13.7730    1.0350 N   0  0  0  0  0  0  0  0  0  0  0  0
   -3.8700   15.0430    0.4330 C   0  0  1  0  0  0  0  0  0  0  0  0
   -2.3310   15.3610    0.5730 C   0  0  2  0  0  0  0  0  0  0  0  0
   -4.4470   15.2410   -1.0020 C   0  0  2  0  0  0  0  0  0  0  0  0
   -5.4800   16.2290   -0.9020 O   0  0  0  0  0  0  0  0  0  0  0  0
   -5.1750   14.1760   -1.4430 F   0  0  0  0  0  0  0  0  0  0  0  0
   -3.3560   15.5420   -2.0530 C   0  0  0  0  0  0  0  0  0  0  0  0
   -1.4420   15.1840   -0.6690 C   0  0  2  0  0  0  0  0  0  0  0  0
   -1.6700   14.5430    1.6050 N   0  0  0  0  0  0  0  0  0  0  0  0
   -2.1450   14.7110   -1.8430 N   0  0  0  0  0  0  0  0  0  0  0  0
   -0.2750   14.4120   -0.2450 N   0  0  0  0  0  0  0  0  0  0  0  0
   -0.2930   14.3630    1.1890 C   0  0  0  0  0  0  0  0  0  0  0  0
   -1.2250   14.5020   -2.8690 C   0  0  0  0  0  0  0  0  0  0  0  0
   -0.5490   15.4880   -3.3970 C   0  0  0  0  0  0  0  0  0  0  0  0
   -0.9140   13.2070   -3.3780 C   0  0  0  0  0  0  0  0  0  0  0  0
   -0.6970   16.7620   -2.9900 O   0  0  0  0  0  0  0  0  0  0  0  0
   -1.3360   12.4870   -4.4790 C   0  0  0  0  0  0  0  0  0  0  0  0
   -0.0040   12.4160   -2.7060 O   0  0  0  0  0  0  0  0  0  0  0  0
    0.1640   11.2170   -3.3450 N   0  0  0  0  0  0  0  0  0  0  0  0
   -0.6400   11.2760   -4.3990 C   0  0  0  0  0  0  0  0  0  0  0  0
   -0.7350   10.2520   -5.2700 O   0  0  0  0  0  0  0  0  0  0  0  0
   -1.8730   10.3260   -6.1190 C   0  0  0  0  0  0  0  0  0  0  0  0
  2  1  1  6
  2  3  1  0
  2  4  1  0
  4  5  1  1
  4  6  1  0
  4  7  1  0
  3  8  1  0
  3  9  1  1
  7 10  1  0
  8 10  1  0
  8 11  1  1
  9 12  1  0
 11 12  1  0
 10 13  1  0
 13 14  2  3
 13 15  1  0
 14 16  1  0
 15 17  2  0
 15 18  1  0
 18 19  1  0
 17 20  1  0
 19 20  2  0
 20 21  1  0
 21 22  1  0
M  END
