mac-x0159-mac-x0282
     RDKit          3D

 17 19  0  0  0  0  0  0  0  0999 V2000
   -4.4190   15.0890    0.8760 N   0  0  0  0  0  0  0  0  0  0  0  0
   -3.3950   14.6560   -0.0610 C   0  0  2  0  0  0  0  0  0  0  0  0
   -2.0890   15.4370    0.1130 C   0  0  2  0  0  0  0  0  0  0  0  0
   -3.9750   14.9080   -1.3710 N   0  0  0  0  0  0  0  0  0  0  0  0
   -2.9970   15.3550   -2.3650 C   0  0  0  0  0  0  0  0  0  0  0  0
   -1.1010   15.0630   -0.9930 C   0  0  2  0  0  0  0  0  0  0  0  0
   -1.3160   15.2990    1.3380 N   0  0  0  0  0  0  0  0  0  0  0  0
   -1.6970   14.7170   -2.2440 N   0  0  0  0  0  0  0  0  0  0  0  0
   -0.2500   14.0740   -0.3710 N   0  0  0  0  0  0  0  0  0  0  0  0
   -0.0750   14.6460    0.9620 C   0  0  0  0  0  0  0  0  0  0  0  0
   -0.8880   14.6090   -3.4600 C   0  0  0  0  0  0  0  0  0  0  0  0
   -0.4540   15.8850   -4.1380 C   0  0  0  0  0  0  0  0  0  0  0  0
    0.8310   16.4090   -4.1450 C   0  0  0  0  0  0  0  0  0  0  0  0
   -1.3780   16.6530   -4.8450 N   0  0  0  0  0  0  0  0  0  0  0  0
   -0.7930   17.7120   -5.3630 C   0  0  0  0  0  0  0  0  0  0  0  0
    0.8760   17.8660   -5.0410 S   0  0  0  0  0  0  0  0  0  0  0  0
   -1.4850   18.7410   -6.1830 C   0  0  0  0  0  0  0  0  0  0  0  0
  2  1  1  1
  2  3  1  0
  2  4  1  0
  4  5  1  0
  3  6  1  0
  3  7  1  1
  5  8  1  0
  6  8  1  0
  6  9  1  1
  7 10  1  0
  9 10  1  0
  8 11  1  0
 11 12  1  0
 12 13  2  0
 12 14  1  0
 14 15  2  0
 13 16  1  0
 15 16  1  0
 15 17  1  0
M  END
