mac-x0588-mac-x0354
     RDKit          3D

 33 37  0  0  0  0  0  0  0  0999 V2000
   -4.7360   15.1530    0.8720 N   0  0  0  0  0  0  0  0  0  0  0  0
   -3.5780   15.5420    0.0940 C   0  0  1  0  0  0  0  0  0  0  0  0
   -2.3480   14.7030    0.3920 C   0  0  1  0  0  0  0  0  0  0  0  0
   -4.0130   15.3910   -1.2760 N   0  0  0  0  0  0  0  0  0  0  0  0
   -2.9610   15.5270   -2.3080 C   0  0  0  0  0  0  0  0  0  0  0  0
   -1.3350   15.0990   -0.6490 C   0  0  2  0  0  0  0  0  0  0  0  0
   -1.5970   14.9590    1.6180 N   0  0  0  0  0  0  0  0  0  0  0  0
   -1.7250   14.7830   -2.0090 N   0  0  0  0  0  0  0  0  0  0  0  0
   -0.2510   14.2710   -0.1530 N   0  0  0  0  0  0  0  0  0  0  0  0
   -0.2690   14.4620    1.2760 C   0  0  0  0  0  0  0  0  0  0  0  0
   -0.5730   15.0940   -2.9320 C   0  0  2  0  0  0  0  0  0  0  0  0
    0.7670   14.9250   -2.1140 C   0  0  0  0  0  0  0  0  0  0  0  0
   -0.4240   16.5060   -3.6240 C   0  0  2  0  0  0  0  0  0  0  0  0
    1.2230   13.4790   -1.9050 C   0  0  0  0  0  0  0  0  0  0  0  0
   -1.6160   17.1010   -4.2280 O   0  0  0  0  0  0  0  0  0  0  0  0
    0.6000   16.4990   -4.7490 C   0  0  0  0  0  0  0  0  0  0  0  0
    1.2510   12.9910   -3.2430 N   0  0  0  0  0  0  0  0  0  0  0  0
    0.3440   17.8070   -5.4370 C   0  0  0  0  0  0  0  0  0  0  0  0
   -1.1570   18.0000   -5.2620 C   0  0  0  0  0  0  0  0  0  0  0  0
    0.7670   11.8940   -3.6370 C   0  0  0  0  0  0  0  0  0  0  0  0
    0.1680   10.9160   -2.9170 O   0  0  0  0  0  0  0  0  0  0  0  0
    0.9590   11.7890   -5.0330 C   0  0  0  0  0  0  0  0  0  0  0  0
    1.9920   12.4810   -5.6720 C   0  0  0  0  0  0  0  0  0  0  0  0
    0.3120   11.0850   -6.0470 C   0  0  0  0  0  0  0  0  0  0  0  0
    1.0120   11.4050   -7.1760 N   0  0  0  0  0  0  0  0  0  0  0  0
    2.0230   12.2410   -6.9550 N   0  0  0  0  0  0  0  0  0  0  0  0
   -0.8200   10.1830   -6.0600 C   0  0  0  0  0  0  0  0  0  0  0  0
    0.7840   10.9490   -8.5250 C   0  0  0  0  0  0  0  0  0  0  0  0
   -0.6130    8.8360   -6.3870 C   0  0  0  0  0  0  0  0  0  0  0  0
   -2.1040   10.6270   -5.7590 C   0  0  0  0  0  0  0  0  0  0  0  0
   -1.6760    7.9420   -6.4110 C   0  0  0  0  0  0  0  0  0  0  0  0
   -3.1690    9.7270   -5.7870 C   0  0  0  0  0  0  0  0  0  0  0  0
   -2.9560    8.3890   -6.1100 C   0  0  0  0  0  0  0  0  0  0  0  0
  2  1  1  1
  2  3  1  0
  2  4  1  0
  4  5  1  0
  3  6  1  0
  3  7  1  1
  5  8  1  0
  6  8  1  0
  6  9  1  1
  7 10  1  0
  9 10  1  0
  8 11  1  0
 11 12  1  1
 11 13  1  0
 12 14  1  0
 13 15  1  0
 13 16  1  6
 14 17  1  0
 16 18  1  0
 15 19  1  0
 18 19  1  0
 17 20  2  3
 20 21  1  0
 20 22  1  0
 22 23  1  0
 22 24  2  0
 24 25  1  0
 23 26  2  0
 25 26  1  0
 24 27  1  0
 25 28  1  0
 27 29  2  0
 27 30  1  0
 29 31  1  0
 30 32  2  0
 31 33  2  0
 32 33  1  0
M  END
