mac-x0212-mac-x0411
     RDKit          3D

 26 27  0  0  0  0  0  0  0  0999 V2000
   -6.2540   12.7840    1.2940 C   0  0  0  0  0  0  0  0  0  0  0  0
   -6.8040   14.4410    0.9110 S   0  0  0  0  0  0  0  0  0  0  0  0
   -7.5560   14.9480    2.0410 O   0  0  0  0  0  0  0  0  0  0  0  0
   -7.4040   14.4190   -0.4050 O   0  0  0  0  0  0  0  0  0  0  0  0
   -5.3400   15.2770    0.7200 N   0  0  0  0  0  0  0  0  0  0  0  0
   -4.4130   14.9070   -0.2910 C   0  0  0  0  0  0  0  0  0  0  0  0
   -3.2510   14.2260    0.0410 C   0  0  0  0  0  0  0  0  0  0  0  0
   -4.6670   15.2210   -1.6370 C   0  0  0  0  0  0  0  0  0  0  0  0
   -2.3410   13.8430   -0.9520 C   0  0  0  0  0  0  0  0  0  0  0  0
   -3.7490   14.8360   -2.6450 C   0  0  0  0  0  0  0  0  0  0  0  0
   -2.5670   14.1300   -2.3140 C   0  0  0  0  0  0  0  0  0  0  0  0
   -1.5420   13.6810   -3.3580 C   0  0  0  0  0  0  0  0  0  0  0  0
   -0.3600   13.7340   -3.0680 O   0  0  0  0  0  0  0  0  0  0  0  0
   -2.0670   13.2480   -4.6090 O   0  0  0  0  0  0  0  0  0  0  0  0
   -1.9210   11.8880   -5.1890 C   0  0  0  0  0  0  0  0  0  0  0  0
   -0.8050   11.3900   -5.9730 C   0  0  0  0  0  0  0  0  0  0  0  0
   -3.0010   11.0070   -4.9710 C   0  0  0  0  0  0  0  0  0  0  0  0
    0.2970   12.1700   -6.2360 O   0  0  0  0  0  0  0  0  0  0  0  0
   -3.0020    9.7040   -5.4980 C   0  0  0  0  0  0  0  0  0  0  0  0
   -0.8480   10.0670   -6.5070 C   0  0  0  0  0  0  0  0  0  0  0  0
    0.3940    9.3710   -7.4970 Cl  0  0  0  0  0  0  0  0  0  0  0  0
    0.9000   12.8230   -5.1060 C   0  0  0  0  0  0  0  0  0  0  0  0
   -1.9400    9.2390   -6.2600 C   0  0  0  0  0  0  0  0  0  0  0  0
    0.9550   12.0060   -3.8180 C   0  0  0  0  0  0  0  0  0  0  0  0
    1.5730   12.6290   -2.7900 O   0  0  0  0  0  0  0  0  0  0  0  0
    0.5100   10.8850   -3.6310 O   0  0  0  0  0  0  0  0  0  0  0  0
  1  2  1  0
  2  3  2  0
  2  4  2  0
  2  5  1  0
  5  6  1  0
  6  7  2  0
  6  8  1  0
  7  9  1  0
  8 10  2  0
  9 11  2  0
 10 11  1  0
 11 12  1  0
 12 13  2  0
 12 14  1  0
 14 15  1  0
 15 16  2  0
 15 17  1  0
 16 18  1  0
 17 19  2  0
 16 20  1  0
 20 21  1  0
 18 22  1  0
 19 23  1  0
 20 23  2  0
 22 24  1  0
 24 25  1  0
 24 26  2  0
M  END
