mac-x0263-diamond-x0438_0_A
     RDKit          3D

 16 17  0  0  0  0  0  0  0  0999 V2000
  -11.5850   14.1060    2.3520 O   0  0  0  0  0  0  0  0  0  0  0  0
  -10.8960   15.1360    2.8650 C   0  0  0  0  0  0  0  0  0  0  0  0
  -11.4210   15.9150    3.6500 O   0  0  0  0  0  0  0  0  0  0  0  0
   -9.4380   15.3250    2.4190 C   0  0  2  0  0  0  0  0  0  0  0  0
   -8.9210   14.1920    1.5270 C   0  0  0  0  0  0  0  0  0  0  0  0
   -8.5510   15.6580    3.6260 C   0  0  0  0  0  0  0  0  0  0  0  0
   -9.4370   16.4980    1.5760 O   0  0  0  0  0  0  0  0  0  0  0  0
   -7.6030   14.4870    0.9100 C   0  0  0  0  0  0  0  0  0  0  0  0
   -7.4540   14.8520   -0.4050 N   0  0  0  0  0  0  0  0  0  0  0  0
   -6.4470   14.4450    1.5240 N   0  0  0  0  0  0  0  0  0  0  0  0
   -6.1170   15.0490   -0.6350 C   0  0  0  0  0  0  0  0  0  0  0  0
   -5.5100   14.7870    0.5860 C   0  0  0  0  0  0  0  0  0  0  0  0
   -5.4120   15.4200   -1.7710 C   0  0  0  0  0  0  0  0  0  0  0  0
   -4.1230   14.8930    0.7070 C   0  0  0  0  0  0  0  0  0  0  0  0
   -4.0250   15.5200   -1.6370 C   0  0  0  0  0  0  0  0  0  0  0  0
   -3.3910   15.2580   -0.4180 C   0  0  0  0  0  0  0  0  0  0  0  0
  1  2  1  0
  2  3  2  0
  2  4  1  0
  4  5  1  0
  4  6  1  1
  4  7  1  0
  5  8  1  0
  8  9  1  0
  8 10  2  0
  9 11  1  0
 10 12  1  0
 11 12  2  0
 11 13  1  0
 12 14  1  0
 13 15  2  0
 14 16  2  0
 15 16  1  0
M  END
