mac-x0161-mac-x0398
     RDKit          3D

 28 31  0  0  0  0  0  0  0  0999 V2000
   -4.1840   14.9700    1.1620 N   0  0  0  0  0  0  0  0  0  0  0  0
   -3.3100   15.7920    0.3740 C   0  0  1  0  0  0  0  0  0  0  0  0
   -1.8350   15.3900    0.4610 C   0  0  2  0  0  0  0  0  0  0  0  0
   -3.7940   15.6880   -0.9770 N   0  0  0  0  0  0  0  0  0  0  0  0
   -2.7010   15.6870   -1.9420 C   0  0  0  0  0  0  0  0  0  0  0  0
   -1.5130   14.2350   -0.4700 C   0  0  1  0  0  0  0  0  0  0  0  0
   -1.3710   14.7710    1.6770 N   0  0  0  0  0  0  0  0  0  0  0  0
   -1.8570   14.5070   -1.8390 N   0  0  0  0  0  0  0  0  0  0  0  0
   -0.0910   14.1900   -0.2060 N   0  0  0  0  0  0  0  0  0  0  0  0
   -0.0460   14.3820    1.2450 C   0  0  0  0  0  0  0  0  0  0  0  0
   -2.4580   13.3390   -2.4850 C   0  0  1  0  0  0  0  0  0  0  0  0
   -3.9190   13.6710   -2.8630 C   0  0  0  0  0  0  0  0  0  0  0  0
   -1.6090   12.6020   -3.4740 C   0  0  0  0  0  0  0  0  0  0  0  0
   -4.3780   13.7670   -4.0070 O   0  0  0  0  0  0  0  0  0  0  0  0
   -1.9020   11.7760   -4.5270 C   0  0  0  0  0  0  0  0  0  0  0  0
   -0.2490   12.7110   -3.3630 O   0  0  0  0  0  0  0  0  0  0  0  0
   -4.8200   13.9060   -1.6890 C   0  0  0  0  0  0  0  0  0  0  0  0
    0.3590   11.9480   -4.3460 N   0  0  0  0  0  0  0  0  0  0  0  0
   -0.6500   11.4000   -5.0230 C   0  0  0  0  0  0  0  0  0  0  0  0
   -5.9600   14.7200   -1.6630 C   0  0  0  0  0  0  0  0  0  0  0  0
   -4.4440   13.2350   -0.5180 C   0  0  0  0  0  0  0  0  0  0  0  0
   -0.4570   10.5690   -6.0660 O   0  0  0  0  0  0  0  0  0  0  0  0
   -6.3670   15.3850   -2.7830 O   0  0  0  0  0  0  0  0  0  0  0  0
   -6.6980   14.8600   -0.4720 C   0  0  0  0  0  0  0  0  0  0  0  0
   -5.1750   13.3740    0.6570 C   0  0  0  0  0  0  0  0  0  0  0  0
   -1.0650    9.2940   -5.8840 C   0  0  0  0  0  0  0  0  0  0  0  0
   -6.3040   14.1890    0.6980 C   0  0  0  0  0  0  0  0  0  0  0  0
   -6.9990   14.3120    1.9060 N   0  0  0  0  0  0  0  0  0  0  0  0
  2  1  1  1
  2  3  1  0
  2  4  1  0
  4  5  1  0
  3  6  1  0
  3  7  1  1
  5  8  1  0
  6  8  1  0
  6  9  1  6
  7 10  1  0
  9 10  1  0
  8 11  1  0
 11 12  1  6
 11 13  1  0
 12 14  2  0
 13 15  2  0
 13 16  1  0
 12 17  1  0
 16 18  1  0
 15 19  1  0
 18 19  2  0
 17 20  2  0
 17 21  1  0
 19 22  1  0
 20 23  1  0
 20 24  1  0
 21 25  2  0
 22 26  1  0
 24 27  2  0
 25 27  1  0
 27 28  1  0
M  END
