mac-x0204-mac-x0182
     RDKit          3D

 21 23  0  0  0  0  0  0  0  0999 V2000
    0.2560   13.0200   -1.7920 O   0  0  0  0  0  0  0  0  0  0  0  0
    0.3440   14.1670   -2.4780 C   0  0  0  0  0  0  0  0  0  0  0  0
    0.9870   15.1050   -2.0450 O   0  0  0  0  0  0  0  0  0  0  0  0
   -0.3830   14.2450   -3.8040 C   0  0  2  0  0  0  0  0  0  0  0  0
   -1.5740   15.2220   -3.8350 C   0  0  0  0  0  0  0  0  0  0  0  0
   -0.6210   12.9890   -4.5880 C   0  0  0  0  0  0  0  0  0  0  0  0
   -2.6350   15.0690   -4.9600 C   0  0  1  0  0  0  0  0  0  0  0  0
   -1.0910   13.3280   -5.8090 N   0  0  0  0  0  0  0  0  0  0  0  0
   -0.6160   11.2490   -4.6150 S   0  0  1  0  0  0  0  0  0  0  0  0
   -2.6420   16.2630   -5.7440 O   0  0  0  0  0  0  0  0  0  0  0  0
   -0.0410   11.0740   -3.0980 O   0  0  0  0  0  0  0  0  0  0  0  0
   -2.4370   13.8490   -5.8640 C   0  0  0  0  0  0  0  0  0  0  0  0
   -0.8240   12.1310   -5.9780 N   0  0  0  0  0  0  0  0  0  0  0  0
   -0.9650    9.9310   -5.6910 C   0  0  0  0  0  0  0  0  0  0  0  0
    0.2160   11.5540   -6.6830 C   0  0  0  0  0  0  0  0  0  0  0  0
   -0.3760   10.2620   -6.9050 C   0  0  0  0  0  0  0  0  0  0  0  0
   -1.6650    8.7720   -5.5230 C   0  0  0  0  0  0  0  0  0  0  0  0
    1.3270   11.9420   -6.9970 O   0  0  0  0  0  0  0  0  0  0  0  0
   -1.7470    7.9320   -6.6420 C   0  0  0  0  0  0  0  0  0  0  0  0
   -0.4280    9.4660   -8.0160 C   0  0  0  0  0  0  0  0  0  0  0  0
   -1.1340    8.2700   -7.8760 C   0  0  0  0  0  0  0  0  0  0  0  0
  1  2  1  0
  2  3  2  0
  4  2  1  1
  4  5  1  0
  4  6  1  0
  5  7  1  0
  6  8  1  0
  6  9  2  0
  7 10  1  6
  9 11  2  0
  7 12  1  0
  8 12  1  0
  9 13  1  6
  9 14  1  0
 13 15  1  0
 14 16  2  0
 15 16  1  0
 14 17  1  0
 15 18  2  0
 17 19  2  0
 16 20  1  0
 19 21  1  0
 20 21  2  0
M  END
