mac-x0402-mac-x0358
     RDKit          3D

 23 25  0  0  0  0  0  0  0  0999 V2000
   -1.5180   14.7890   -2.9930 Cl  0  0  0  0  0  0  0  0  0  0  0  0
   -3.0310   14.8460   -2.1850 C   0  0  0  0  0  0  0  0  0  0  0  0
   -4.2690   14.8730   -2.8650 C   0  0  0  0  0  0  0  0  0  0  0  0
   -2.9050   14.8530   -0.8100 C   0  0  0  0  0  0  0  0  0  0  0  0
   -4.2640   14.8360   -4.4150 C   0  0  0  0  0  0  0  0  0  0  0  0
   -4.0460   14.8820   -0.0430 C   0  0  0  0  0  0  0  0  0  0  0  0
   -5.4350   14.9130   -2.0440 C   0  0  0  0  0  0  0  0  0  0  0  0
   -5.3140   14.9100   -0.6160 C   0  0  0  0  0  0  0  0  0  0  0  0
   -4.1550   14.8850    1.6570 S   0  0  0  0  0  0  0  0  0  0  0  0
   -2.9100   14.3170   -4.6900 C   0  0  0  0  0  0  0  0  0  0  0  0
   -5.8590   14.9060    1.5360 C   0  0  0  0  0  0  0  0  0  0  0  0
   -6.3450   14.9230    0.3130 N   0  0  0  0  0  0  0  0  0  0  0  0
   -2.6920   12.9460   -4.7030 C   0  0  0  0  0  0  0  0  0  0  0  0
   -1.8520   15.2160   -4.8840 C   0  0  0  0  0  0  0  0  0  0  0  0
   -6.6310   14.9100    2.6380 N   0  0  0  0  0  0  0  0  0  0  0  0
   -1.4060   12.4780   -4.8560 C   0  0  0  0  0  0  0  0  0  0  0  0
   -0.5550   14.7340   -5.0380 C   0  0  0  0  0  0  0  0  0  0  0  0
   -1.1520   11.1350   -4.8470 O   0  0  0  0  0  0  0  0  0  0  0  0
   -0.3390   13.3550   -4.9970 C   0  0  0  0  0  0  0  0  0  0  0  0
    1.0240   12.7720   -5.0610 C   0  0  0  0  0  0  0  0  0  0  0  0
    1.1980   12.1600   -3.6730 C   0  0  0  0  0  0  0  0  0  0  0  0
    2.0330   12.8510   -2.8680 O   0  0  0  0  0  0  0  0  0  0  0  0
    0.6590   11.1580   -3.2230 O   0  0  0  0  0  0  0  0  0  0  0  0
  1  2  1  0
  2  3  2  0
  2  4  1  0
  3  5  1  0
  4  6  2  0
  3  7  1  0
  6  8  1  0
  7  8  2  0
  6  9  1  0
  5 10  1  0
  9 11  1  0
  8 12  1  0
 11 12  2  0
 10 13  2  0
 10 14  1  0
 11 15  1  0
 13 16  1  0
 14 17  2  0
 16 18  1  0
 16 19  2  0
 17 19  1  0
 19 20  1  0
 20 21  1  0
 21 22  1  0
 21 23  2  0
M  END
