mac-x0321-mac-x0190
     RDKit          3D

 16 17  0  0  0  0  0  0  0  0999 V2000
   -4.3600   15.3690    1.8390 Cl  0  0  0  0  0  0  0  0  0  0  0  0
   -4.5190   15.6150    0.0730 C   0  0  1  0  0  0  0  0  0  0  0  0
   -3.1370   15.3140   -0.5480 C   0  0  0  0  0  0  0  0  0  0  0  0
   -5.6350   14.7660   -0.5860 C   0  0  2  0  0  0  0  0  0  0  0  0
   -3.0870   15.4370   -2.0810 C   0  0  1  0  0  0  0  0  0  0  0  0
   -5.5350   14.8510   -2.0980 C   0  0  0  0  0  0  0  0  0  0  0  0
   -7.0350   15.1500   -0.2540 N   0  0  0  0  0  0  0  0  0  0  0  0
   -5.5920   13.3540   -0.0110 C   0  0  0  0  0  0  0  0  0  0  0  0
   -1.9370   14.6610   -2.7390 C   0  0  0  0  0  0  0  0  0  0  0  0
   -4.4030   15.1460   -2.7520 C   0  0  0  0  0  0  0  0  0  0  0  0
   -7.3390   14.5420    1.0450 C   0  0  2  0  0  0  0  0  0  0  0  0
   -6.4660   13.3870    1.1730 N   0  0  0  0  0  0  0  0  0  0  0  0
   -0.8890   14.4560   -1.9040 O   0  0  0  0  0  0  0  0  0  0  0  0
   -1.9170   14.2620   -3.8940 O   0  0  0  0  0  0  0  0  0  0  0  0
   -8.8440   14.1990    1.2070 C   0  0  0  0  0  0  0  0  0  0  0  0
   -9.3980   14.8870    2.3230 O   0  0  0  0  0  0  0  0  0  0  0  0
  2  1  1  1
  2  3  1  0
  2  4  1  0
  3  5  1  0
  4  6  1  6
  4  7  1  0
  4  8  1  0
  5  9  1  6
  5 10  1  0
  6 10  2  0
  7 11  1  0
  8 12  1  0
 11 12  1  0
  9 13  1  0
  9 14  2  0
 11 15  1  6
 15 16  1  0
M  END
