mac-x0138-mac-x0375
     RDKit          3D

 26 28  0  0  0  0  0  0  0  0999 V2000
   -1.7570   14.8850   -3.6050 C   0  0  0  0  0  0  0  0  0  0  0  0
   -2.6890   15.0110   -2.5090 N   0  0  0  0  0  0  0  0  0  0  0  0
   -4.0250   15.2460   -2.5640 C   0  0  0  0  0  0  0  0  0  0  0  0
   -2.3610   14.9140   -1.2050 C   0  0  0  0  0  0  0  0  0  0  0  0
   -4.5580   15.3120   -1.3520 N   0  0  0  0  0  0  0  0  0  0  0  0
   -3.5070   15.1030   -0.4890 C   0  0  0  0  0  0  0  0  0  0  0  0
   -1.1850   14.6960   -0.7260 N   0  0  0  0  0  0  0  0  0  0  0  0
   -3.3800   15.0510    0.9140 C   0  0  0  0  0  0  0  0  0  0  0  0
   -1.1400   14.6530    0.5900 C   0  0  0  0  0  0  0  0  0  0  0  0
   -4.4780   15.2550    1.7310 N   0  0  0  0  0  0  0  0  0  0  0  0
    0.1460   14.4340    0.8600 N   0  0  0  0  0  0  0  0  0  0  0  0
   -2.1520   14.8030    1.4680 N   0  0  0  0  0  0  0  0  0  0  0  0
    0.8480   14.8150   -0.3800 C   0  0  0  0  0  0  0  0  0  0  0  0
    0.8790   13.7160   -1.4420 C   0  0  0  0  0  0  0  0  0  0  0  0
    2.1870   13.7200   -2.2180 C   0  0  0  0  0  0  0  0  0  0  0  0
    2.2920   12.5370   -3.0170 O   0  0  0  0  0  0  0  0  0  0  0  0
    1.1640   11.9870   -3.5340 C   0  0  0  0  0  0  0  0  0  0  0  0
    0.5100   11.1160   -2.9760 O   0  0  0  0  0  0  0  0  0  0  0  0
    0.8350   12.5600   -4.9100 C   0  0  0  0  0  0  0  0  0  0  0  0
    0.7140   11.6010   -5.9520 O   0  0  0  0  0  0  0  0  0  0  0  0
   -0.4640   10.9170   -6.0670 C   0  0  0  0  0  0  0  0  0  0  0  0
   -0.3680    9.6530   -6.6670 C   0  0  0  0  0  0  0  0  0  0  0  0
   -1.7110   11.3670   -5.6490 C   0  0  0  0  0  0  0  0  0  0  0  0
   -1.4970    8.8550   -6.8370 C   0  0  0  0  0  0  0  0  0  0  0  0
   -2.8410   10.5670   -5.8240 C   0  0  0  0  0  0  0  0  0  0  0  0
   -2.7370    9.3120   -6.4130 C   0  0  0  0  0  0  0  0  0  0  0  0
  1  2  1  0
  2  3  1  0
  2  4  1  0
  3  5  2  0
  4  6  2  0
  5  6  1  0
  4  7  1  0
  6  8  1  0
  7  9  2  0
  8 10  1  0
  9 11  1  0
  8 12  2  0
  9 12  1  0
 11 13  1  0
 13 14  1  0
 14 15  1  0
 15 16  1  0
 16 17  1  0
 17 18  2  0
 17 19  1  0
 19 20  1  0
 20 21  1  0
 21 22  2  0
 21 23  1  0
 22 24  1  0
 23 25  2  0
 24 26  2  0
 25 26  1  0
M  END
