mac-x0387-mac-x0587
     RDKit          3D

 21 22  0  0  0  0  0  0  0  0999 V2000
   -3.8250   15.4420    1.7460 N   0  0  0  0  0  0  0  0  0  0  0  0
   -2.7320   14.5790    1.3400 C   0  0  2  0  0  0  0  0  0  0  0  0
   -1.4040   14.9630    1.7240 N   0  0  0  0  0  0  0  0  0  0  0  0
   -2.6850   14.3280   -0.1930 C   0  0  2  0  0  0  0  0  0  0  0  0
   -1.2420   14.5510   -0.7220 C   0  0  1  0  0  0  0  0  0  0  0  0
   -0.3540   14.1640    1.4030 C   0  0  0  0  0  0  0  0  0  0  0  0
   -3.7330   15.0540   -0.9980 C   0  0  0  0  0  0  0  0  0  0  0  0
   -0.2070   13.8950    0.1320 C   0  0  0  0  0  0  0  0  0  0  0  0
   -1.2030   14.2780   -2.1970 C   0  0  0  0  0  0  0  0  0  0  0  0
   -3.5500   15.3220   -2.2880 C   0  0  0  0  0  0  0  0  0  0  0  0
   -0.3160   13.5920   -2.6510 O   0  0  0  0  0  0  0  0  0  0  0  0
   -2.3210   14.9590   -3.0620 C   0  0  2  0  0  0  0  0  0  0  0  0
   -2.7710   14.2980   -4.2120 O   0  0  0  0  0  0  0  0  0  0  0  0
   -1.9070   14.6680   -5.2640 C   0  0  0  0  0  0  0  0  0  0  0  0
   -0.4730   14.7000   -4.7030 C   0  0  2  0  0  0  0  0  0  0  0  0
    0.2600   16.0300   -4.8970 C   0  0  0  0  0  0  0  0  0  0  0  0
    0.5510   13.2480   -5.1930 S   0  0  0  0  0  0  0  0  0  0  0  0
   -0.1960   11.8650   -4.2630 C   0  0  0  0  0  0  0  0  0  0  0  0
    0.5820   11.4410   -3.0420 C   0  0  0  0  0  0  0  0  0  0  0  0
    0.5160   10.3830   -2.4280 O   0  0  0  0  0  0  0  0  0  0  0  0
    1.4560   12.3910   -2.6300 O   0  0  0  0  0  0  0  0  0  0  0  0
  2  1  1  6
  2  3  1  0
  2  4  1  0
  4  5  1  0
  3  6  1  0
  4  7  1  6
  5  8  1  1
  6  8  2  0
  5  9  1  0
  7 10  2  0
  9 11  2  0
  9 12  1  0
 10 12  1  0
 12 13  1  6
 13 14  1  0
 14 15  1  0
 15 16  1  6
 15 17  1  0
 17 18  1  0
 18 19  1  0
 19 20  2  0
 19 21  1  0
M  END
