mac-x0142-diamond-x0438_0_A
     RDKit          3D

 26 30  0  0  0  0  0  0  0  0999 V2000
   -8.1110   15.4450    3.8370 C   0  0  0  0  0  0  0  0  0  0  0  0
   -9.0780   15.0440    2.3920 S   0  0  0  0  0  0  0  0  0  0  0  0
  -10.2460   14.3300    2.8850 O   0  0  0  0  0  0  0  0  0  0  0  0
   -8.0720   13.8850    1.4430 C   0  0  0  0  0  0  0  0  0  0  0  0
   -9.2860   16.2650    1.6370 O   0  0  0  0  0  0  0  0  0  0  0  0
   -6.7910   14.5150    0.8700 C   0  0  2  0  0  0  0  0  0  0  0  0
   -7.0090   15.2880   -0.3260 N   0  0  0  0  0  0  0  0  0  0  0  0
   -5.7310   13.6370    0.3460 N   0  0  0  0  0  0  0  0  0  0  0  0
   -4.6820   14.6420   -0.0380 C   0  0  1  0  0  0  0  0  0  0  0  0
   -5.6240   15.7150   -0.6440 C   0  0  0  0  0  0  0  0  0  0  0  0
   -3.8290   15.0230    1.0960 N   0  0  0  0  0  0  0  0  0  0  0  0
   -3.7240   14.3840   -1.2560 C   0  0  0  0  0  0  0  0  0  0  0  0
   -2.4730   14.9160    0.6520 C   0  0  0  0  0  0  0  0  0  0  0  0
   -2.3640   14.5980   -0.6880 C   0  0  0  0  0  0  0  0  0  0  0  0
   -1.4320   15.1200    1.4500 N   0  0  0  0  0  0  0  0  0  0  0  0
   -1.0960   14.5320   -1.2540 C   0  0  0  0  0  0  0  0  0  0  0  0
   -0.8520   14.2570   -2.6120 N   0  0  0  0  0  0  0  0  0  0  0  0
   -0.0300   14.7420   -0.4650 N   0  0  0  0  0  0  0  0  0  0  0  0
   -0.2440   15.0150    0.8340 C   0  0  0  0  0  0  0  0  0  0  0  0
   -1.9720   14.1820   -3.5600 C   0  0  0  0  0  0  0  0  0  0  0  0
    0.4190   14.7160   -3.1730 C   0  0  0  0  0  0  0  0  0  0  0  0
    0.8330   13.6550   -4.1510 C   0  0  0  0  0  0  0  0  0  0  0  0
   -1.6030   13.2100   -4.6960 C   0  0  0  0  0  0  0  0  0  0  0  0
    2.2860   13.3140   -4.4080 C   0  0  0  0  0  0  0  0  0  0  0  0
    1.4610   12.4340   -3.5170 C   0  0  0  0  0  0  0  0  0  0  0  0
   -0.1820   13.4190   -5.2450 C   0  0  0  0  0  0  0  0  0  0  0  0
  2  1  1  0
  2  3  2  0
  2  4  1  0
  2  5  2  0
  6  4  1  6
  6  7  1  0
  6  8  1  0
  9  8  1  0
  7 10  1  0
  9 10  1  6
  9 11  1  0
  9 12  1  0
 11 13  1  0
 12 14  1  0
 13 14  2  0
 13 15  1  0
 14 16  1  0
 16 17  1  0
 16 18  2  0
 15 19  2  0
 18 19  1  0
 17 20  1  0
 17 21  1  0
 22 21  1  0
 20 23  1  0
 22 24  1  0
 22 25  1  0
 24 25  1  0
 22 26  1  0
 23 26  1  0
M  END
