mac-x0587-mac-x0396
     RDKit          3D

 24 25  0  0  0  0  0  0  0  0999 V2000
    0.1410   16.2330   -4.5410 C   0  0  0  0  0  0  0  0  0  0  0  0
   -0.3290   14.8960   -3.9620 C   0  0  2  0  0  0  0  0  0  0  0  0
   -0.0550   13.5150   -5.1670 S   0  0  0  0  0  0  0  0  0  0  0  0
   -1.8320   14.9370   -3.5810 C   0  0  0  0  0  0  0  0  0  0  0  0
   -0.5800   12.0730   -4.1840 C   0  0  0  0  0  0  0  0  0  0  0  0
   -2.7070   15.2320   -4.4070 O   0  0  0  0  0  0  0  0  0  0  0  0
   -2.0930   14.6300   -2.2680 N   0  0  0  0  0  0  0  0  0  0  0  0
    0.4410   11.5670   -3.1900 C   0  0  0  0  0  0  0  0  0  0  0  0
   -3.3530   14.4010   -1.6480 C   0  0  1  0  0  0  0  0  0  0  0  0
   -1.4890   15.3610   -1.2420 C   0  0  0  0  0  0  0  0  0  0  0  0
    0.5550   10.4310   -2.7640 O   0  0  0  0  0  0  0  0  0  0  0  0
    1.2800   12.5380   -2.7620 O   0  0  0  0  0  0  0  0  0  0  0  0
   -0.3320   15.4090   -0.8690 O   0  0  0  0  0  0  0  0  0  0  0  0
   -2.9930   14.0860   -0.3190 N   0  0  0  0  0  0  0  0  0  0  0  0
   -3.7140   15.8100   -1.4110 C   0  0  0  0  0  0  0  0  0  0  0  0
   -2.5240   16.0870   -0.6450 N   0  0  0  0  0  0  0  0  0  0  0  0
   -3.8450   14.1120    0.6080 C   0  0  0  0  0  0  0  0  0  0  0  0
   -3.4750   13.8860    1.8940 N   0  0  0  0  0  0  0  0  0  0  0  0
   -5.2940   14.3850    0.3200 C   0  0  0  0  0  0  0  0  0  0  0  0
   -5.8490   14.5980   -0.9470 C   0  0  0  0  0  0  0  0  0  0  0  0
   -6.1610   14.4150    1.4010 C   0  0  0  0  0  0  0  0  0  0  0  0
   -7.1690   14.8280   -1.1630 N   0  0  0  0  0  0  0  0  0  0  0  0
   -7.5160   14.6450    1.2090 C   0  0  0  0  0  0  0  0  0  0  0  0
   -7.9700   14.8440   -0.0820 C   0  0  0  0  0  0  0  0  0  0  0  0
  2  1  1  6
  2  3  1  0
  2  4  1  0
  3  5  1  0
  4  6  2  0
  4  7  1  0
  5  8  1  0
  7  9  1  0
  7 10  1  0
  8 11  2  0
  8 12  1  0
 10 13  2  0
  9 14  1  1
  9 15  1  0
 10 16  1  0
 15 16  1  0
 14 17  2  3
 17 18  1  0
 17 19  1  0
 19 20  2  0
 19 21  1  0
 20 22  1  0
 21 23  2  0
 22 24  2  0
 23 24  1  0
M  END
