mac-x0455-mac-x0441
     RDKit          3D

 28 30  0  0  0  0  0  0  0  0999 V2000
   -2.4210   14.7650   -2.4230 C   0  0  0  0  0  0  0  0  0  0  0  0
   -1.2780   14.5850   -3.4260 C   0  0  1  0  0  0  0  0  0  0  0  0
   -1.0850   15.8720   -4.0470 O   0  0  0  0  0  0  0  0  0  0  0  0
    0.0350   14.1740   -2.6840 C   0  0  0  0  0  0  0  0  0  0  0  0
   -1.6460   13.5600   -4.5030 C   0  0  0  0  0  0  0  0  0  0  0  0
    0.9130   15.0000   -2.4080 O   0  0  0  0  0  0  0  0  0  0  0  0
    0.0850   12.8430   -2.3870 N   0  0  0  0  0  0  0  0  0  0  0  0
   -2.7850   12.7420   -4.3590 C   0  0  0  0  0  0  0  0  0  0  0  0
   -0.8770   13.3970   -5.6630 C   0  0  0  0  0  0  0  0  0  0  0  0
    0.5010   11.9800   -3.2560 C   0  0  0  0  0  0  0  0  0  0  0  0
   -3.1340   11.8090   -5.3340 C   0  0  0  0  0  0  0  0  0  0  0  0
   -1.2290   12.4580   -6.6360 C   0  0  0  0  0  0  0  0  0  0  0  0
    0.5300   10.6600   -2.9910 O   0  0  0  0  0  0  0  0  0  0  0  0
    0.9970   12.3640   -4.6400 C   0  0  0  0  0  0  0  0  0  0  0  0
   -2.3580   11.6650   -6.4720 C   0  0  0  0  0  0  0  0  0  0  0  0
    0.5680   11.4800   -5.7380 N   0  0  0  0  0  0  0  0  0  0  0  0
    1.1910   11.5720   -6.9510 N   0  0  0  0  0  0  0  0  0  0  0  0
   -0.4110   10.5180   -5.7450 C   0  0  0  0  0  0  0  0  0  0  0  0
    0.5830   10.6390   -7.7380 C   0  0  0  0  0  0  0  0  0  0  0  0
   -0.4180    9.9730   -7.0100 C   0  0  0  0  0  0  0  0  0  0  0  0
   -1.3090   10.1050   -4.6360 C   0  0  0  0  0  0  0  0  0  0  0  0
    0.8890   10.3110   -9.1860 C   0  0  0  0  0  0  0  0  0  0  0  0
   -1.3380    8.8880   -7.4390 C   0  0  0  0  0  0  0  0  0  0  0  0
   -2.4670    9.2370   -5.1850 C   0  0  0  0  0  0  0  0  0  0  0  0
    1.6040    9.1540   -9.2900 F   0  0  0  0  0  0  0  0  0  0  0  0
   -0.2190   10.1150   -9.9420 F   0  0  0  0  0  0  0  0  0  0  0  0
    1.5950   11.2490   -9.8530 F   0  0  0  0  0  0  0  0  0  0  0  0
   -1.9850    8.2120   -6.2230 C   0  0  0  0  0  0  0  0  0  0  0  0
  2  1  1  1
  2  3  1  0
  2  4  1  0
  2  5  1  0
  4  6  2  0
  4  7  1  0
  5  8  2  0
  5  9  1  0
  7 10  2  3
  8 11  1  0
  9 12  2  0
 10 13  1  0
 10 14  1  0
 11 15  2  0
 12 15  1  0
 14 16  1  0
 16 17  1  0
 16 18  1  0
 17 19  2  0
 18 20  2  0
 19 20  1  0
 18 21  1  0
 19 22  1  0
 20 23  1  0
 21 24  1  0
 22 25  1  0
 22 26  1  0
 22 27  1  0
 23 28  1  0
 24 28  1  0
M  END
