mac-x0346-diamond-x1015_0_A
     RDKit          3D

 28 30  0  0  0  0  0  0  0  0999 V2000
   -7.6450   14.1210    1.2160 O   0  0  0  0  0  0  0  0  0  0  0  0
   -7.7220   14.9750    0.0920 N   0  0  0  0  0  0  0  0  0  0  0  0
   -6.6780   14.9770   -0.8020 C   0  0  0  0  0  0  0  0  0  0  0  0
   -6.9020   14.9320   -2.0070 O   0  0  0  0  0  0  0  0  0  0  0  0
   -5.2740   15.0300   -0.3000 C   0  0  0  0  0  0  0  0  0  0  0  0
   -4.1680   15.0040   -1.1550 C   0  0  0  0  0  0  0  0  0  0  0  0
   -5.0410   15.1050    1.0860 C   0  0  0  0  0  0  0  0  0  0  0  0
   -4.3210   14.9350   -2.5190 O   0  0  0  0  0  0  0  0  0  0  0  0
   -2.8740   15.0450   -0.6380 C   0  0  0  0  0  0  0  0  0  0  0  0
   -3.7440   15.1500    1.5910 C   0  0  0  0  0  0  0  0  0  0  0  0
   -3.3010   14.0970   -3.0920 C   0  0  0  0  0  0  0  0  0  0  0  0
   -2.6590   15.1190    0.7350 C   0  0  0  0  0  0  0  0  0  0  0  0
   -2.0930   14.9680   -3.4200 C   0  0  0  0  0  0  0  0  0  0  0  0
   -1.2140   14.3690   -4.5280 C   0  0  0  0  0  0  0  0  0  0  0  0
    0.0670   13.6650   -4.0250 C   0  0  2  0  0  0  0  0  0  0  0  0
   -0.1000   12.2130   -3.9380 N   0  0  0  0  0  0  0  0  0  0  0  0
    0.3760   13.9680   -2.5600 C   0  0  0  0  0  0  0  0  0  0  0  0
    0.4420   15.0760   -2.0450 O   0  0  0  0  0  0  0  0  0  0  0  0
    0.2660   11.7300   -2.6740 C   0  0  0  0  0  0  0  0  0  0  0  0
    0.5900   12.8030   -1.8990 N   0  0  0  0  0  0  0  0  0  0  0  0
   -0.4900   11.4230   -5.0480 C   0  0  0  0  0  0  0  0  0  0  0  0
    0.3100   10.5660   -2.2700 O   0  0  0  0  0  0  0  0  0  0  0  0
    0.0710   11.6140   -6.3170 C   0  0  0  0  0  0  0  0  0  0  0  0
   -1.4570   10.4160   -4.9010 C   0  0  0  0  0  0  0  0  0  0  0  0
   -0.3180   10.8260   -7.4060 C   0  0  0  0  0  0  0  0  0  0  0  0
   -1.8510    9.6260   -5.9850 C   0  0  0  0  0  0  0  0  0  0  0  0
   -1.2800    9.8340   -7.2330 C   0  0  0  0  0  0  0  0  0  0  0  0
   -1.7650    8.8630   -8.5640 Cl  0  0  0  0  0  0  0  0  0  0  0  0
  1  2  1  0
  2  3  1  0
  3  4  2  0
  3  5  1  0
  5  6  2  0
  5  7  1  0
  6  8  1  0
  6  9  1  0
  7 10  2  0
  8 11  1  0
  9 12  2  0
 10 12  1  0
 11 13  1  0
 13 14  1  0
 15 14  1  1
 15 16  1  0
 15 17  1  0
 17 18  2  0
 16 19  1  0
 17 20  1  0
 19 20  1  0
 16 21  1  0
 19 22  2  0
 21 23  2  0
 21 24  1  0
 23 25  1  0
 24 26  2  0
 25 27  2  0
 26 27  1  0
 27 28  1  0
M  END
