mac-x0555-diamond-x0727_0_A
     RDKit          3D

 27 29  0  0  0  0  0  0  0  0999 V2000
   -7.4890   14.2810    2.8300 N   0  0  0  0  0  0  0  0  0  0  0  0
   -6.9380   14.5110    1.5690 C   0  0  0  0  0  0  0  0  0  0  0  0
   -7.6910   14.5730    0.4030 C   0  0  0  0  0  0  0  0  0  0  0  0
   -5.5650   14.6920    1.4340 C   0  0  0  0  0  0  0  0  0  0  0  0
   -4.9930   14.9240    0.1800 C   0  0  0  0  0  0  0  0  0  0  0  0
   -7.1790   14.7980   -0.8310 N   0  0  0  0  0  0  0  0  0  0  0  0
   -5.8470   14.9700   -0.9360 C   0  0  0  0  0  0  0  0  0  0  0  0
   -3.6040   15.1020    0.0300 C   0  0  0  0  0  0  0  0  0  0  0  0
   -5.2800   15.2000   -2.1780 C   0  0  0  0  0  0  0  0  0  0  0  0
   -3.0420   15.3250   -1.2290 C   0  0  0  0  0  0  0  0  0  0  0  0
   -1.5410   15.4970   -1.3710 C   0  0  0  0  0  0  0  0  0  0  0  0
   -3.8950   15.3760   -2.3380 C   0  0  0  0  0  0  0  0  0  0  0  0
   -0.9090   14.4060   -2.2460 C   0  0  0  0  0  0  0  0  0  0  0  0
    0.0620   13.5010   -1.4780 C   0  0  0  0  0  0  0  0  0  0  0  0
    1.0450   12.9230   -2.3660 O   0  0  0  0  0  0  0  0  0  0  0  0
    0.6250   11.9310   -3.2070 C   0  0  0  0  0  0  0  0  0  0  0  0
    0.8720   12.3240   -4.6760 C   0  0  1  0  0  0  0  0  0  0  0  0
    0.1310   10.8630   -2.8450 O   0  0  0  0  0  0  0  0  0  0  0  0
    0.1130   11.4330   -5.5620 N   0  0  0  0  0  0  0  0  0  0  0  0
    0.4820   13.7710   -4.9200 C   0  0  0  0  0  0  0  0  0  0  0  0
    0.6940   11.1190   -6.7700 C   0  0  0  0  0  0  0  0  0  0  0  0
    1.6410   11.7350   -7.1820 O   0  0  0  0  0  0  0  0  0  0  0  0
    0.0710    9.9400   -7.5120 C   0  0  0  0  0  0  0  0  0  0  0  0
   -1.2350   10.3160   -8.2120 C   0  0  0  0  0  0  0  0  0  0  0  0
   -0.2780    8.7860   -6.5520 C   0  0  0  0  0  0  0  0  0  0  0  0
   -2.1250    9.0900   -8.0660 C   0  0  0  0  0  0  0  0  0  0  0  0
   -1.7730    8.5520   -6.6900 C   0  0  0  0  0  0  0  0  0  0  0  0
  1  2  1  0
  2  3  2  0
  2  4  1  0
  4  5  2  0
  3  6  1  0
  5  7  1  0
  6  7  2  0
  5  8  1  0
  7  9  1  0
  8 10  2  0
 10 11  1  0
  9 12  2  0
 10 12  1  0
 11 13  1  0
 13 14  1  0
 14 15  1  0
 15 16  1  0
 16 17  1  0
 16 18  2  0
 17 19  1  0
 17 20  1  1
 19 21  1  0
 21 22  2  0
 21 23  1  0
 23 24  1  0
 23 25  1  0
 24 26  1  0
 25 27  1  0
 26 27  1  0
M  END
