mac-x0131-mac-x0381
     RDKit          3D

 34 38  0  0  0  0  0  0  0  0999 V2000
   -3.6010   15.1220   -4.2790 C   0  0  0  0  0  0  0  0  0  0  0  0
   -3.0740   15.0600   -2.8890 C   0  0  0  0  0  0  0  0  0  0  0  0
   -3.7360   15.1460   -1.6680 C   0  0  0  0  0  0  0  0  0  0  0  0
   -1.7260   14.9000   -2.6250 N   0  0  0  0  0  0  0  0  0  0  0  0
   -5.1980   15.3310   -1.4520 C   0  0  0  0  0  0  0  0  0  0  0  0
   -0.6690   14.7830   -3.6230 C   0  0  0  0  0  0  0  0  0  0  0  0
   -2.7460   15.0270   -0.6380 C   0  0  0  0  0  0  0  0  0  0  0  0
   -1.5170   14.8710   -1.2640 C   0  0  0  0  0  0  0  0  0  0  0  0
   -2.7410   15.0390    0.7730 C   0  0  0  0  0  0  0  0  0  0  0  0
   -0.3230   14.7280   -0.6490 N   0  0  0  0  0  0  0  0  0  0  0  0
   -0.2330   13.3850   -3.7340 C   0  0  0  0  0  0  0  0  0  0  0  0
   -3.9010   15.2070    1.4830 N   0  0  0  0  0  0  0  0  0  0  0  0
   -1.5630   14.8850    1.4270 N   0  0  0  0  0  0  0  0  0  0  0  0
   -0.4460   14.7460    0.6940 C   0  0  0  0  0  0  0  0  0  0  0  0
    0.8310   12.6920   -3.2170 C   0  0  0  0  0  0  0  0  0  0  0  0
   -1.0140   12.5630   -4.4920 O   0  0  0  0  0  0  0  0  0  0  0  0
   -4.1040   14.3620    2.6160 C   0  0  0  0  0  0  0  0  0  0  0  0
   -0.4400   11.3390   -4.4460 C   0  0  0  0  0  0  0  0  0  0  0  0
    0.6970   11.3740   -3.6700 C   0  0  0  0  0  0  0  0  0  0  0  0
   -5.5630   14.0980    2.9300 C   0  0  0  0  0  0  0  0  0  0  0  0
   -6.0440   14.7930    4.1940 C   0  0  0  0  0  0  0  0  0  0  0  0
   -7.3380   15.3270    3.8940 N   0  0  0  0  0  0  0  0  0  0  0  0
   -8.3000   14.5070    3.8000 C   0  0  0  0  0  0  0  0  0  0  0  0
   -8.2020   13.1550    3.9950 N   0  0  0  0  0  0  0  0  0  0  0  0
   -9.6060   15.1070    3.4100 C   0  0  0  0  0  0  0  0  0  0  0  0
   -9.6810   15.8840    2.2520 C   0  0  0  0  0  0  0  0  0  0  0  0
  -10.7440   14.8940    4.1890 C   0  0  0  0  0  0  0  0  0  0  0  0
  -10.8900   16.4570    1.8470 C   0  0  0  0  0  0  0  0  0  0  0  0
  -11.9580   15.4580    3.7970 C   0  0  0  0  0  0  0  0  0  0  0  0
  -12.0470   16.2370    2.6320 C   0  0  0  0  0  0  0  0  0  0  0  0
  -10.9780   17.2390    0.6870 C   0  0  0  0  0  0  0  0  0  0  0  0
  -13.2620   16.8040    2.2240 C   0  0  0  0  0  0  0  0  0  0  0  0
  -12.1970   17.7970    0.2990 C   0  0  0  0  0  0  0  0  0  0  0  0
  -13.3360   17.5780    1.0660 C   0  0  0  0  0  0  0  0  0  0  0  0
  1  2  1  0
  2  3  2  0
  2  4  1  0
  3  5  1  0
  4  6  1  0
  3  7  1  0
  4  8  1  0
  7  8  2  0
  7  9  1  0
  8 10  1  0
  6 11  1  0
  9 12  1  0
  9 13  2  0
 10 14  2  0
 13 14  1  0
 11 15  2  0
 11 16  1  0
 12 17  1  0
 16 18  1  0
 15 19  1  0
 18 19  2  0
 17 20  1  0
 20 21  1  0
 21 22  1  0
 22 23  2  3
 23 24  1  0
 23 25  1  0
 25 26  2  0
 25 27  1  0
 26 28  1  0
 27 29  2  0
 28 30  2  0
 29 30  1  0
 28 31  1  0
 30 32  1  0
 31 33  2  0
 32 34  2  0
 33 34  1  0
M  END
