mac-x0472-mac-x0361
     RDKit          3D

 24 26  0  0  0  0  0  0  0  0999 V2000
   -1.7630   13.4840   -4.0100 O   0  0  0  0  0  0  0  0  0  0  0  0
   -2.5840   14.0080   -3.0000 S   0  0  2  0  0  0  0  0  0  0  0  0
   -3.2500   15.3520   -3.1630 N   0  0  0  0  0  0  0  0  0  0  0  0
   -1.5350   14.1710   -1.6860 N   0  0  0  0  0  0  0  0  0  0  0  0
   -3.7120   12.6630   -2.5680 C   0  0  0  0  0  0  0  0  0  0  0  0
   -2.0030   14.3850   -0.4340 C   0  0  0  0  0  0  0  0  0  0  0  0
   -3.3050   11.3800   -2.9380 C   0  0  0  0  0  0  0  0  0  0  0  0
   -4.9340   12.8260   -1.8960 C   0  0  0  0  0  0  0  0  0  0  0  0
   -4.2650   15.2770   -2.2270 C   0  0  0  0  0  0  0  0  0  0  0  0
   -1.2370   14.8810    0.5090 N   0  0  0  0  0  0  0  0  0  0  0  0
   -3.6090   14.0710    0.1200 S   0  0  0  0  0  0  0  0  0  0  0  0
   -4.1060   10.2790   -2.6480 C   0  0  0  0  0  0  0  0  0  0  0  0
   -5.7340   11.7190   -1.6070 C   0  0  0  0  0  0  0  0  0  0  0  0
   -3.9510   15.4860   -0.9100 C   0  0  0  0  0  0  0  0  0  0  0  0
   -5.5220   14.9620   -2.6580 C   0  0  0  0  0  0  0  0  0  0  0  0
   -3.1330   14.6940    1.6230 C   0  0  0  0  0  0  0  0  0  0  0  0
   -1.8930   15.0590    1.6910 N   0  0  0  0  0  0  0  0  0  0  0  0
   -5.3210   10.4480   -1.9860 C   0  0  0  0  0  0  0  0  0  0  0  0
   -4.9370   15.3490    0.0410 C   0  0  0  0  0  0  0  0  0  0  0  0
   -6.5180   14.8200   -1.7180 C   0  0  0  0  0  0  0  0  0  0  0  0
   -6.2150   15.0000   -0.3640 C   0  0  0  0  0  0  0  0  0  0  0  0
   -7.2380   14.8110    0.6750 C   0  0  0  0  0  0  0  0  0  0  0  0
   -6.8640   14.8430    2.0070 N   0  0  0  0  0  0  0  0  0  0  0  0
   -8.4020   14.6290    0.3630 O   0  0  0  0  0  0  0  0  0  0  0  0
  1  2  2  0
  2  3  2  0
  2  4  1  1
  2  5  1  0
  4  6  1  0
  5  7  2  0
  5  8  1  0
  3  9  1  0
  6 10  2  0
  6 11  1  0
  7 12  1  0
  8 13  2  0
  9 14  2  0
  9 15  1  0
 11 16  1  0
 10 17  1  0
 16 17  2  0
 12 18  2  0
 13 18  1  0
 14 19  1  0
 15 20  2  0
 19 21  2  0
 20 21  1  0
 21 22  1  0
 22 23  1  0
 22 24  2  0
M  END
