mac-x0555-mac-x0326
     RDKit          3D

 21 23  0  0  0  0  0  0  0  0999 V2000
   -7.3590   14.5390    3.0030 N   0  0  0  0  0  0  0  0  0  0  0  0
   -6.7820   14.5520    1.7390 C   0  0  0  0  0  0  0  0  0  0  0  0
   -7.5370   14.4090    0.5920 C   0  0  0  0  0  0  0  0  0  0  0  0
   -5.3960   14.7120    1.5800 C   0  0  0  0  0  0  0  0  0  0  0  0
   -4.8100   14.7220    0.3060 C   0  0  0  0  0  0  0  0  0  0  0  0
   -7.0190   14.4150   -0.6440 N   0  0  0  0  0  0  0  0  0  0  0  0
   -5.6750   14.5690   -0.7580 C   0  0  0  0  0  0  0  0  0  0  0  0
   -3.2970   14.8920    0.1170 C   0  0  0  0  0  0  0  0  0  0  0  0
   -5.1220   14.5700   -2.1250 C   0  0  1  0  0  0  0  0  0  0  0  0
   -2.8150   14.9650   -1.3710 C   0  0  2  0  0  0  0  0  0  0  0  0
   -6.4830   14.8970   -3.2040 Cl  0  0  0  0  0  0  0  0  0  0  0  0
   -3.9580   15.5540   -2.2020 C   0  0  0  0  0  0  0  0  0  0  0  0
   -2.3670   13.6530   -2.0110 C   0  0  0  0  0  0  0  0  0  0  0  0
   -1.1610   15.7710   -1.5520 S   0  0  0  0  0  0  0  0  0  0  0  0
   -0.8830   15.0830   -3.2210 C   0  0  2  0  0  0  0  0  0  0  0  0
   -1.8280   13.9780   -3.3460 N   0  0  0  0  0  0  0  0  0  0  0  0
    0.5760   14.7460   -3.6350 C   0  0  0  0  0  0  0  0  0  0  0  0
    0.8570   13.3590   -4.2290 C   0  0  0  0  0  0  0  0  0  0  0  0
    1.0340   12.3030   -3.1790 C   0  0  0  0  0  0  0  0  0  0  0  0
    0.3520   11.1710   -3.4140 O   0  0  0  0  0  0  0  0  0  0  0  0
    1.7230   12.4180   -2.1870 O   0  0  0  0  0  0  0  0  0  0  0  0
  1  2  1  0
  2  3  2  0
  2  4  1  0
  4  5  2  0
  3  6  1  0
  5  7  1  0
  6  7  2  0
  5  8  1  0
  7  9  1  0
 10  8  1  1
  9 11  1  6
  9 12  1  0
 10 12  1  0
 10 13  1  0
 10 14  1  0
 14 15  1  0
 13 16  1  0
 15 16  1  0
 15 17  1  1
 17 18  1  0
 18 19  1  0
 19 20  1  0
 19 21  2  0
M  END
