mac-x0379-diamond-x0962_0_A
     RDKit          3D

 15 16  0  0  0  0  0  0  0  0999 V2000
   -6.4640   15.8400   -1.5000 C   0  0  0  0  0  0  0  0  0  0  0  0
   -5.1880   15.3520   -2.0590 C   0  0  0  0  0  0  0  0  0  0  0  0
   -5.0180   14.8280   -3.2530 N   0  0  0  0  0  0  0  0  0  0  0  0
   -3.7960   15.4530   -1.1030 S   0  0  0  0  0  0  0  0  0  0  0  0
   -3.6990   14.4610   -3.4180 C   0  0  0  0  0  0  0  0  0  0  0  0
   -2.8770   14.7070   -2.3420 C   0  0  0  0  0  0  0  0  0  0  0  0
   -1.4380   14.4050   -2.1330 C   0  0  0  0  0  0  0  0  0  0  0  0
   -1.1140   13.3440   -3.0170 O   0  0  0  0  0  0  0  0  0  0  0  0
   -0.5240   15.4290   -2.4920 O   0  0  0  0  0  0  0  0  0  0  0  0
   -1.3380   13.9870   -0.6360 C   0  0  0  0  0  0  0  0  0  0  0  0
   -2.6140   14.1790    0.1650 C   0  0  0  0  0  0  0  0  0  0  0  0
   -2.7330   15.1200    1.1580 N   0  0  0  0  0  0  0  0  0  0  0  0
   -3.8660   13.5670    0.1450 C   0  0  0  0  0  0  0  0  0  0  0  0
   -4.0010   15.0440    1.6770 C   0  0  0  0  0  0  0  0  0  0  0  0
   -4.7070   14.1140    1.0810 N   0  0  0  0  0  0  0  0  0  0  0  0
  1  2  1  0
  2  3  2  0
  2  4  1  0
  3  5  1  0
  4  6  1  0
  5  6  2  0
  6  7  1  0
  7  8  1  0
  7  9  1  0
  7 10  1  0
 10 11  1  0
 11 12  1  0
 11 13  2  0
 12 14  1  0
 13 15  1  0
 14 15  2  0
M  END
