mac-x0564-diamond-x0438_0_A
     RDKit          3D

 23 26  0  0  0  0  0  0  0  0999 V2000
    0.7650   14.1060   -1.0890 O   0  0  0  0  0  0  0  0  0  0  0  0
    0.0100   14.3040   -2.0280 C   0  0  0  0  0  0  0  0  0  0  0  0
    0.4360   14.2630   -3.3540 N   0  0  0  0  0  0  0  0  0  0  0  0
   -1.4000   14.5870   -1.9000 C   0  0  0  0  0  0  0  0  0  0  0  0
   -2.2680   14.5910   -2.9630 C   0  0  0  0  0  0  0  0  0  0  0  0
   -0.4480   14.2800   -4.3040 C   0  0  0  0  0  0  0  0  0  0  0  0
   -2.0610   14.8810   -0.7280 O   0  0  0  0  0  0  0  0  0  0  0  0
   -1.8200   14.3320   -4.2030 N   0  0  0  0  0  0  0  0  0  0  0  0
   -3.3660   15.0660   -1.0950 C   0  0  0  0  0  0  0  0  0  0  0  0
   -3.5200   14.8870   -2.4530 C   0  0  0  0  0  0  0  0  0  0  0  0
   -4.7980   15.0210   -3.0210 C   0  0  0  0  0  0  0  0  0  0  0  0
   -4.4490   15.4110   -0.1250 C   0  0  0  0  0  0  0  0  0  0  0  0
   -5.8750   14.9710   -2.2260 C   0  0  0  0  0  0  0  0  0  0  0  0
   -5.7590   14.7720   -0.7120 C   0  0  2  0  0  0  0  0  0  0  0  0
   -7.0280   15.1570   -0.0710 N   0  0  0  0  0  0  0  0  0  0  0  0
   -5.7230   13.3110   -0.2930 C   0  0  0  0  0  0  0  0  0  0  0  0
   -7.0860   14.4680    1.2230 C   0  0  2  0  0  0  0  0  0  0  0  0
   -6.1910   13.3390    1.0980 N   0  0  0  0  0  0  0  0  0  0  0  0
   -8.5220   14.0850    1.5530 C   0  0  0  0  0  0  0  0  0  0  0  0
   -9.3660   15.2770    2.5770 S   0  0  0  0  0  0  0  0  0  0  0  0
   -8.2660   15.5930    3.9440 C   0  0  0  0  0  0  0  0  0  0  0  0
  -10.5730   14.6710    3.1080 O   0  0  0  0  0  0  0  0  0  0  0  0
   -9.4780   16.4990    1.8080 O   0  0  0  0  0  0  0  0  0  0  0  0
  1  2  2  0
  2  3  1  0
  2  4  1  0
  4  5  2  0
  3  6  2  0
  4  7  1  0
  5  8  1  0
  6  8  1  0
  7  9  1  0
  5 10  1  0
  9 10  2  0
 10 11  1  0
  9 12  1  0
 11 13  2  0
 14 12  1  1
 14 13  1  0
 14 15  1  0
 14 16  1  0
 15 17  1  0
 16 18  1  0
 17 18  1  0
 17 19  1  6
 20 19  1  0
 20 21  1  0
 20 22  2  0
 20 23  2  0
M  END
