mac-x0139-diamond-x0962_0_A
     RDKit          3D

 16 17  0  0  0  0  0  0  0  0999 V2000
   -2.1130   15.2400   -3.3500 C   0  0  0  0  0  0  0  0  0  0  0  0
   -0.9710   15.4130   -2.4210 N   0  0  0  0  0  0  0  0  0  0  0  0
    0.3290   14.9460   -3.0140 C   0  0  0  0  0  0  0  0  0  0  0  0
   -1.2000   15.2260   -1.0290 C   0  0  0  0  0  0  0  0  0  0  0  0
    0.1880   13.5940   -3.7160 C   0  0  0  0  0  0  0  0  0  0  0  0
   -2.4490   15.3100   -0.5200 C   0  0  0  0  0  0  0  0  0  0  0  0
   -0.1110   14.9530   -0.2010 N   0  0  0  0  0  0  0  0  0  0  0  0
    0.8780   12.4920   -2.9470 C   0  0  0  0  0  0  0  0  0  0  0  0
   -2.6290   15.1100    0.9350 C   0  0  0  0  0  0  0  0  0  0  0  0
   -0.3360   14.7820    1.0720 C   0  0  0  0  0  0  0  0  0  0  0  0
   -3.7710   15.5540   -0.9900 C   0  0  0  0  0  0  0  0  0  0  0  0
    1.8110   12.6850   -2.1930 O   0  0  0  0  0  0  0  0  0  0  0  0
    0.3720   11.2580   -3.1620 O   0  0  0  0  0  0  0  0  0  0  0  0
   -1.5450   14.8330    1.6750 N   0  0  0  0  0  0  0  0  0  0  0  0
   -3.8670   15.2360    1.2860 N   0  0  0  0  0  0  0  0  0  0  0  0
   -4.5410   15.4980    0.1070 C   0  0  0  0  0  0  0  0  0  0  0  0
  1  2  1  0
  2  3  1  0
  2  4  1  0
  3  5  1  0
  4  6  2  0
  4  7  1  0
  5  8  1  0
  6  9  1  0
  7 10  2  0
  6 11  1  0
  8 12  2  0
  8 13  1  0
  9 14  1  0
 10 14  1  0
  9 15  2  0
 11 16  2  0
 15 16  1  0
M  END
