mac-x0139-mac-x0338
     RDKit          3D

 25 27  0  0  0  0  0  0  0  0999 V2000
   -1.9920   14.9020   -3.4190 C   0  0  0  0  0  0  0  0  0  0  0  0
   -0.8970   14.5090   -2.5110 N   0  0  0  0  0  0  0  0  0  0  0  0
    0.4510   14.6200   -3.1610 C   0  0  0  0  0  0  0  0  0  0  0  0
   -0.9740   14.6670   -1.0950 C   0  0  0  0  0  0  0  0  0  0  0  0
    1.0820   13.2630   -3.4530 C   0  0  0  0  0  0  0  0  0  0  0  0
   -2.0870   14.4860   -0.3430 C   0  0  0  0  0  0  0  0  0  0  0  0
    0.1940   15.0860   -0.4680 N   0  0  0  0  0  0  0  0  0  0  0  0
    0.6820   12.2380   -2.4320 C   0  0  0  0  0  0  0  0  0  0  0  0
   -2.0150   14.7050    1.1200 C   0  0  0  0  0  0  0  0  0  0  0  0
    0.2000   15.2030    0.8200 C   0  0  0  0  0  0  0  0  0  0  0  0
   -3.4350   14.1490   -0.5140 C   0  0  0  0  0  0  0  0  0  0  0  0
    0.4280   12.5110   -1.2680 O   0  0  0  0  0  0  0  0  0  0  0  0
    0.6210   10.9750   -2.8970 O   0  0  0  0  0  0  0  0  0  0  0  0
   -0.8300   14.9060    1.6450 N   0  0  0  0  0  0  0  0  0  0  0  0
   -3.1610   14.6730    1.7140 N   0  0  0  0  0  0  0  0  0  0  0  0
   -4.0180   14.3190    0.6930 C   0  0  0  0  0  0  0  0  0  0  0  0
   -5.4890   14.1360    0.9560 C   0  0  1  0  0  0  0  0  0  0  0  0
   -5.7540   12.8110    1.4880 N   0  0  0  0  0  0  0  0  0  0  0  0
   -5.9230   15.0640    1.9470 O   0  0  0  0  0  0  0  0  0  0  0  0
   -6.0090   14.4050   -0.4400 C   0  0  0  0  0  0  0  0  0  0  0  0
   -5.0340   14.8010   -1.3210 N   0  0  0  0  0  0  0  0  0  0  0  0
   -7.3200   14.2680   -0.8420 C   0  0  0  0  0  0  0  0  0  0  0  0
   -5.4180   15.0370   -2.5800 C   0  0  0  0  0  0  0  0  0  0  0  0
   -7.7070   14.5100   -2.1200 N   0  0  0  0  0  0  0  0  0  0  0  0
   -6.7250   14.8920   -2.9710 C   0  0  0  0  0  0  0  0  0  0  0  0
  1  2  1  0
  2  3  1  0
  2  4  1  0
  3  5  1  0
  4  6  2  0
  4  7  1  0
  5  8  1  0
  6  9  1  0
  7 10  2  0
  6 11  1  0
  8 12  2  0
  8 13  1  0
  9 14  1  0
 10 14  1  0
  9 15  2  0
 11 16  2  0
 15 16  1  0
 16 17  1  0
 17 18  1  1
 17 19  1  0
 17 20  1  0
 20 21  2  0
 20 22  1  0
 21 23  1  0
 22 24  2  0
 23 25  2  0
 24 25  1  0
M  END
