mac-x0333-mac-x0319
     RDKit          3D

 24 26  0  0  0  0  0  0  0  0999 V2000
   -2.3540   15.1260   -2.6070 O   0  0  0  0  0  0  0  0  0  0  0  0
   -3.2820   15.0620   -1.6070 C   0  0  0  0  0  0  0  0  0  0  0  0
   -2.8470   14.9820   -0.2520 C   0  0  0  0  0  0  0  0  0  0  0  0
   -4.6380   15.0760   -1.9510 C   0  0  0  0  0  0  0  0  0  0  0  0
   -1.3680   14.9630    0.1640 C   0  0  0  0  0  0  0  0  0  0  0  0
   -5.5510   15.0060   -0.9270 C   0  0  0  0  0  0  0  0  0  0  0  0
   -3.8260   14.9210    0.7560 C   0  0  0  0  0  0  0  0  0  0  0  0
   -0.7410   13.6050    0.1140 C   0  0  0  0  0  0  0  0  0  0  0  0
   -5.1570   14.9330    0.3850 C   0  0  0  0  0  0  0  0  0  0  0  0
   -6.9080   14.9930   -1.0520 O   0  0  0  0  0  0  0  0  0  0  0  0
    0.2790   13.5240   -1.0130 C   0  0  0  0  0  0  0  0  0  0  0  0
   -6.2300   14.8750    1.2260 O   0  0  0  0  0  0  0  0  0  0  0  0
   -7.2730   14.5890    0.2780 C   0  0  0  0  0  0  0  0  0  0  0  0
    0.3060   12.1410   -1.4210 N   0  0  0  0  0  0  0  0  0  0  0  0
    0.6630   11.6710   -2.5510 C   0  0  0  0  0  0  0  0  0  0  0  0
    0.5440   10.3200   -2.6170 O   0  0  0  0  0  0  0  0  0  0  0  0
    1.1870   12.3640   -3.8080 C   0  0  0  0  0  0  0  0  0  0  0  0
    0.5500   13.7120   -4.0960 C   0  0  0  0  0  0  0  0  0  0  0  0
    1.2820   14.9140   -3.9930 C   0  0  0  0  0  0  0  0  0  0  0  0
   -0.8000   13.7690   -4.4720 C   0  0  0  0  0  0  0  0  0  0  0  0
    0.6470   16.1290   -4.2640 C   0  0  0  0  0  0  0  0  0  0  0  0
   -1.4150   14.9950   -4.7410 C   0  0  0  0  0  0  0  0  0  0  0  0
    1.2890   17.3260   -4.1740 O   0  0  0  0  0  0  0  0  0  0  0  0
   -0.6860   16.1740   -4.6360 C   0  0  0  0  0  0  0  0  0  0  0  0
  1  2  1  0
  2  3  2  0
  2  4  1  0
  3  5  1  0
  4  6  2  0
  3  7  1  0
  5  8  1  0
  6  9  1  0
  7  9  2  0
  6 10  1  0
  8 11  1  0
  9 12  1  0
 10 13  1  0
 12 13  1  0
 11 14  1  0
 14 15  2  3
 15 16  1  0
 15 17  1  0
 17 18  1  0
 18 19  2  0
 18 20  1  0
 19 21  1  0
 20 22  2  0
 21 23  1  0
 21 24  2  0
 22 24  1  0
M  END
