mac-x0441-mac-x0555
     RDKit          3D

 31 34  0  0  0  0  0  0  0  0999 V2000
    0.4830   10.7820   -3.3640 O   0  0  0  0  0  0  0  0  0  0  0  0
    0.6160   12.1120   -3.4520 C   0  0  0  0  0  0  0  0  0  0  0  0
    0.7140   12.7090   -2.3290 N   0  0  0  0  0  0  0  0  0  0  0  0
    0.6170   12.6750   -4.8470 C   0  0  0  0  0  0  0  0  0  0  0  0
    0.8320   14.1580   -2.3130 C   0  0  0  0  0  0  0  0  0  0  0  0
    0.2860   11.7310   -5.9060 N   0  0  0  0  0  0  0  0  0  0  0  0
   -0.5940   14.7140   -2.4440 C   0  0  0  0  0  0  0  0  0  0  0  0
    1.0460   11.7280   -7.0380 N   0  0  0  0  0  0  0  0  0  0  0  0
   -0.7190   10.8000   -5.9570 C   0  0  0  0  0  0  0  0  0  0  0  0
   -1.3710   14.6490   -1.1110 C   0  0  0  0  0  0  0  0  0  0  0  0
    0.4940   10.7710   -7.8260 C   0  0  0  0  0  0  0  0  0  0  0  0
   -0.6030   10.1720   -7.1760 C   0  0  0  0  0  0  0  0  0  0  0  0
   -1.7560   10.4870   -4.9370 C   0  0  0  0  0  0  0  0  0  0  0  0
    0.9570   10.3720   -9.2070 C   0  0  0  0  0  0  0  0  0  0  0  0
   -1.5030    9.0840   -7.6390 C   0  0  0  0  0  0  0  0  0  0  0  0
   -2.9190    9.7280   -5.6120 C   0  0  0  0  0  0  0  0  0  0  0  0
   -2.8960   14.7930   -1.1150 C   0  0  0  0  0  0  0  0  0  0  0  0
    1.6510    9.2010   -9.2190 F   0  0  0  0  0  0  0  0  0  0  0  0
   -0.0980   10.1700  -10.0320 F   0  0  0  0  0  0  0  0  0  0  0  0
    1.6900   11.2900   -9.8650 F   0  0  0  0  0  0  0  0  0  0  0  0
   -2.4100    8.5800   -6.5040 C   0  0  0  0  0  0  0  0  0  0  0  0
   -3.6810   15.0880   -2.2450 C   0  0  0  0  0  0  0  0  0  0  0  0
   -3.5540   14.6000    0.0960 C   0  0  0  0  0  0  0  0  0  0  0  0
   -4.9500   14.6730    0.1980 C   0  0  0  0  0  0  0  0  0  0  0  0
   -5.0910   15.1620   -2.1330 C   0  0  0  0  0  0  0  0  0  0  0  0
   -5.5780   14.4610    1.4230 C   0  0  0  0  0  0  0  0  0  0  0  0
   -5.7420   14.9500   -0.9230 C   0  0  0  0  0  0  0  0  0  0  0  0
   -6.9570   14.5120    1.5440 C   0  0  0  0  0  0  0  0  0  0  0  0
   -7.0910   15.0060   -0.8390 N   0  0  0  0  0  0  0  0  0  0  0  0
   -7.5470   14.2910    2.7920 N   0  0  0  0  0  0  0  0  0  0  0  0
   -7.6620   14.7850    0.3770 C   0  0  0  0  0  0  0  0  0  0  0  0
  1  2  1  0
  2  3  2  3
  2  4  1  0
  3  5  1  0
  4  6  1  0
  5  7  1  0
  6  8  1  0
  6  9  1  0
  7 10  1  0
  8 11  2  0
  9 12  2  0
 11 12  1  0
  9 13  1  0
 11 14  1  0
 12 15  1  0
 13 16  1  0
 10 17  1  0
 14 18  1  0
 14 19  1  0
 14 20  1  0
 15 21  1  0
 16 21  1  0
 17 22  2  0
 17 23  1  0
 23 24  2  0
 22 25  1  0
 24 26  1  0
 24 27  1  0
 25 27  2  0
 26 28  2  0
 27 29  1  0
 28 30  1  0
 28 31  1  0
 29 31  2  0
M  END
