mac-x0587-diamond-x0631_0_A
     RDKit          3D

 33 35  0  0  0  0  0  0  0  0999 V2000
    0.1590   16.1850   -4.0690 C   0  0  0  0  0  0  0  0  0  0  0  0
   -0.3850   14.8130   -3.6670 C   0  0  2  0  0  0  0  0  0  0  0  0
    0.1430   13.5710   -4.9420 S   0  0  0  0  0  0  0  0  0  0  0  0
   -1.9410   14.8850   -3.5030 C   0  0  0  0  0  0  0  0  0  0  0  0
   -0.0680   11.9010   -4.1720 C   0  0  2  0  0  0  0  0  0  0  0  0
   -2.6570   15.0610   -4.4940 O   0  0  0  0  0  0  0  0  0  0  0  0
   -2.4950   14.7670   -2.2240 N   0  0  0  0  0  0  0  0  0  0  0  0
    0.6690   11.6570   -2.8690 C   0  0  0  0  0  0  0  0  0  0  0  0
    0.4250   10.8280   -5.1060 C   0  0  0  0  0  0  0  0  0  0  0  0
   -3.8930   14.9790   -1.8710 C   0  0  0  0  0  0  0  0  0  0  0  0
   -1.7400   14.7510   -1.0310 C   0  0  0  0  0  0  0  0  0  0  0  0
    0.6440   10.6110   -2.2330 O   0  0  0  0  0  0  0  0  0  0  0  0
    1.4110   12.7020   -2.4470 O   0  0  0  0  0  0  0  0  0  0  0  0
   -0.5370   14.7750   -0.8620 O   0  0  0  0  0  0  0  0  0  0  0  0
   -0.6760    9.9400   -5.6920 C   0  0  0  0  0  0  0  0  0  0  0  0
   -3.9220   15.1450   -0.3590 C   0  0  0  0  0  0  0  0  0  0  0  0
   -2.6230   14.7120    0.0450 N   0  0  0  0  0  0  0  0  0  0  0  0
   -0.3010    8.9070   -6.7700 C   0  0  1  0  0  0  0  0  0  0  0  0
   -1.5150    8.2390   -7.4370 C   0  0  0  0  0  0  0  0  0  0  0  0
    0.7910    9.4570   -7.6160 N   0  0  0  0  0  0  0  0  0  0  0  0
   -2.6950    9.1810   -7.6400 C   0  0  0  0  0  0  0  0  0  0  0  0
    0.8920   10.8680   -7.5140 N   0  0  0  0  0  0  0  0  0  0  0  0
    0.7730    9.1090   -9.0100 N   0  0  0  0  0  0  0  0  0  0  0  0
    0.3580   11.4000   -8.7390 N   0  0  0  0  0  0  0  0  0  0  0  0
    0.6080   10.3700   -9.7210 C   0  0  1  0  0  0  0  0  0  0  0  0
    1.6560   10.6120  -10.6680 N   0  0  0  0  0  0  0  0  0  0  0  0
    2.0510    9.6020  -11.6210 C   0  0  2  0  0  0  0  0  0  0  0  0
    3.0180    8.7910  -10.9560 O   0  0  0  0  0  0  0  0  0  0  0  0
    2.6080   10.0430  -13.0000 C   0  0  2  0  0  0  0  0  0  0  0  0
    3.9770    9.6570  -13.1900 O   0  0  0  0  0  0  0  0  0  0  0  0
    2.5920   11.5290  -13.3260 C   0  0  0  0  0  0  0  0  0  0  0  0
    3.5920   11.6240  -14.4610 C   0  0  0  0  0  0  0  0  0  0  0  0
    4.3860   10.3290  -14.3830 C   0  0  0  0  0  0  0  0  0  0  0  0
  2  1  1  6
  2  3  1  0
  2  4  1  0
  3  5  1  0
  4  6  2  0
  4  7  1  0
  5  8  1  0
  5  9  1  6
  7 10  1  0
  7 11  1  0
  8 12  2  0
  8 13  1  0
 11 14  2  0
  9 15  1  0
 10 16  1  0
 11 17  1  0
 16 17  1  0
 18 15  1  6
 18 19  1  0
 18 20  1  0
 19 21  1  0
 20 22  1  0
 20 23  1  0
 22 24  1  0
 23 25  1  0
 24 25  1  0
 25 26  1  1
 26 27  1  0
 27 28  1  1
 27 29  1  0
 29 30  1  0
 29 31  1  1
 31 32  1  0
 30 33  1  0
 32 33  1  0
M  END
