mac-x0283-mac-x0277
     RDKit          3D

 24 26  0  0  0  0  0  0  0  0999 V2000
   -6.7870   14.7630    2.5350 N   0  0  0  0  0  0  0  0  0  0  0  0
   -6.6820   14.7670    1.1950 C   0  0  0  0  0  0  0  0  0  0  0  0
   -7.7380   14.7240    0.3790 N   0  0  0  0  0  0  0  0  0  0  0  0
   -5.4550   14.8210    0.4740 C   0  0  0  0  0  0  0  0  0  0  0  0
   -7.2210   14.7490   -0.8990 O   0  0  0  0  0  0  0  0  0  0  0  0
   -5.8680   14.8010   -0.8420 C   0  0  0  0  0  0  0  0  0  0  0  0
   -4.0660   14.8820    0.7390 C   0  0  0  0  0  0  0  0  0  0  0  0
   -5.0270   14.8250   -1.9340 C   0  0  0  0  0  0  0  0  0  0  0  0
   -3.1770   14.9020   -0.3530 C   0  0  0  0  0  0  0  0  0  0  0  0
   -3.6530   14.8660   -1.6800 C   0  0  0  0  0  0  0  0  0  0  0  0
   -2.7400   14.8620   -2.8800 C   0  0  0  0  0  0  0  0  0  0  0  0
   -3.4380   15.5090   -4.0760 C   0  0  0  0  0  0  0  0  0  0  0  0
   -2.6610   15.5090   -5.3760 C   0  0  0  0  0  0  0  0  0  0  0  0
   -1.2120   15.5840   -5.0340 C   0  0  0  0  0  0  0  0  0  0  0  0
   -0.5560   14.3770   -4.7910 C   0  0  0  0  0  0  0  0  0  0  0  0
   -0.5030   16.7840   -4.9430 C   0  0  0  0  0  0  0  0  0  0  0  0
   -1.2540   18.3130   -5.2340 Cl  0  0  0  0  0  0  0  0  0  0  0  0
    0.7910   14.3450   -4.4550 C   0  0  0  0  0  0  0  0  0  0  0  0
    0.8470   16.7670   -4.6060 C   0  0  0  0  0  0  0  0  0  0  0  0
    1.4600   13.0190   -4.1920 C   0  0  0  0  0  0  0  0  0  0  0  0
    1.4920   15.5470   -4.3610 C   0  0  0  0  0  0  0  0  0  0  0  0
    0.9890   12.4030   -2.8970 C   0  0  0  0  0  0  0  0  0  0  0  0
    0.2630   11.2790   -3.0850 O   0  0  0  0  0  0  0  0  0  0  0  0
    1.1850   12.8050   -1.7680 O   0  0  0  0  0  0  0  0  0  0  0  0
  1  2  1  0
  2  3  2  0
  2  4  1  0
  3  5  1  0
  4  6  2  0
  5  6  1  0
  4  7  1  0
  6  8  1  0
  7  9  2  0
  8 10  2  0
  9 10  1  0
 10 11  1  0
 11 12  1  0
 12 13  1  0
 13 14  1  0
 14 15  2  0
 14 16  1  0
 16 17  1  0
 15 18  1  0
 16 19  2  0
 18 20  1  0
 18 21  2  0
 19 21  1  0
 20 22  1  0
 22 23  1  0
 22 24  2  0
M  END
