mac-x0496-mac-x0224
     RDKit          3D

 29 31  0  0  0  0  0  0  0  0999 V2000
   -9.6340   17.8420    4.8510 C   0  0  0  0  0  0  0  0  0  0  0  0
   -9.8810   16.8420    3.7920 C   0  0  0  0  0  0  0  0  0  0  0  0
  -10.9480   16.8760    2.9850 N   0  0  0  0  0  0  0  0  0  0  0  0
   -9.0240   15.8000    3.5670 N   0  0  0  0  0  0  0  0  0  0  0  0
  -10.7740   15.7650    2.1570 O   0  0  0  0  0  0  0  0  0  0  0  0
   -9.6140   15.1750    2.5670 C   0  0  0  0  0  0  0  0  0  0  0  0
   -9.1950   13.9480    1.8550 C   0  0  0  0  0  0  0  0  0  0  0  0
   -7.8410   14.1310    1.4260 N   0  0  0  0  0  0  0  0  0  0  0  0
   -7.5390   14.4460    0.1350 C   0  0  0  0  0  0  0  0  0  0  0  0
   -8.3500   14.7800   -0.7070 O   0  0  0  0  0  0  0  0  0  0  0  0
   -6.1270   14.3560   -0.1830 C   0  0  0  0  0  0  0  0  0  0  0  0
   -5.2340   14.5630    0.8210 C   0  0  0  0  0  0  0  0  0  0  0  0
   -5.7040   14.0700   -1.4900 C   0  0  0  0  0  0  0  0  0  0  0  0
   -3.9450   14.4770    0.4790 C   0  0  0  0  0  0  0  0  0  0  0  0
   -4.3430   13.9810   -1.7930 C   0  0  0  0  0  0  0  0  0  0  0  0
   -3.8240   13.6770   -3.1710 C   0  0  0  0  0  0  0  0  0  0  0  0
   -3.4620   14.1910   -0.7640 C   0  0  0  0  0  0  0  0  0  0  0  0
   -2.8110   14.7810    1.5950 S   0  0  2  0  0  0  0  0  0  0  0  0
   -3.8990   14.8220   -4.0190 O   0  0  0  0  0  0  0  0  0  0  0  0
   -4.0750   15.7910    2.2620 C   0  0  0  0  0  0  0  0  0  0  0  0
   -2.2980   14.8600   -0.0660 C   0  0  0  0  0  0  0  0  0  0  0  0
   -1.0440   14.4700   -0.4840 C   0  0  0  0  0  0  0  0  0  0  0  0
   -3.2740   15.3220   -0.9910 C   0  0  0  0  0  0  0  0  0  0  0  0
   -0.7630   14.5330   -1.8610 C   0  0  0  0  0  0  0  0  0  0  0  0
   -2.9780   15.3770   -2.3550 C   0  0  0  0  0  0  0  0  0  0  0  0
    0.5530   14.1260   -2.3590 C   0  0  0  0  0  0  0  0  0  0  0  0
   -1.7180   14.9770   -2.7970 C   0  0  0  0  0  0  0  0  0  0  0  0
    1.5090   13.9630   -1.6290 O   0  0  0  0  0  0  0  0  0  0  0  0
    0.5840   13.9490   -3.6930 O   0  0  0  0  0  0  0  0  0  0  0  0
  1  2  1  0
  2  3  2  0
  2  4  1  0
  3  5  1  0
  4  6  2  0
  5  6  1  0
  6  7  1  0
  7  8  1  0
  8  9  1  0
  9 10  2  0
  9 11  1  0
 11 12  2  0
 11 13  1  0
 12 14  1  0
 13 15  2  0
 15 16  1  0
 14 17  2  0
 15 17  1  0
 14 18  1  0
 16 19  1  0
 18 20  1  6
 18 21  1  0
 21 22  2  0
 21 23  1  0
 22 24  1  0
 23 25  2  0
 24 26  1  0
 24 27  2  0
 25 27  1  0
 26 28  2  0
 26 29  1  0
M  END
