mac-x0319-diamond-x0905_0_A
     RDKit          3D

 21 22  0  0  0  0  0  0  0  0999 V2000
    0.5670   10.3490   -2.5810 O   0  0  0  0  0  0  0  0  0  0  0  0
    0.6550   11.6910   -2.4690 C   0  0  0  0  0  0  0  0  0  0  0  0
    0.2560   12.2070   -1.3630 N   0  0  0  0  0  0  0  0  0  0  0  0
    1.2140   12.4600   -3.6620 C   0  0  0  0  0  0  0  0  0  0  0  0
    0.2280   13.6140   -1.0020 C   0  0  0  0  0  0  0  0  0  0  0  0
    0.5370   13.7670   -3.9970 C   0  0  0  0  0  0  0  0  0  0  0  0
   -0.6970   13.6230    0.2220 C   0  0  0  0  0  0  0  0  0  0  0  0
    1.2460   14.9810   -3.9480 C   0  0  0  0  0  0  0  0  0  0  0  0
   -0.8170   13.7860   -4.3600 C   0  0  0  0  0  0  0  0  0  0  0  0
   -1.3900   14.9320    0.5000 C   0  0  0  0  0  0  0  0  0  0  0  0
    0.5910   16.1730   -4.2560 C   0  0  0  0  0  0  0  0  0  0  0  0
   -1.4540   14.9870   -4.6680 C   0  0  0  0  0  0  0  0  0  0  0  0
    1.2900   17.3400   -4.1950 O   0  0  0  0  0  0  0  0  0  0  0  0
   -0.7460   16.1860   -4.6150 C   0  0  0  0  0  0  0  0  0  0  0  0
   -2.8560   15.0060    0.0590 C   0  0  0  0  0  0  0  0  0  0  0  0
   -3.8770   14.9340    1.0020 C   0  0  0  0  0  0  0  0  0  0  0  0
   -3.2610   15.1490   -1.2840 C   0  0  0  0  0  0  0  0  0  0  0  0
   -5.2030   14.9870    0.7170 N   0  0  0  0  0  0  0  0  0  0  0  0
   -4.6190   15.2120   -1.6090 C   0  0  0  0  0  0  0  0  0  0  0  0
   -5.5230   15.1260   -0.5750 C   0  0  0  0  0  0  0  0  0  0  0  0
   -6.8640   15.1750   -0.8100 O   0  0  0  0  0  0  0  0  0  0  0  0
  1  2  1  0
  2  3  2  3
  2  4  1  0
  3  5  1  0
  4  6  1  0
  5  7  1  0
  6  8  2  0
  6  9  1  0
  7 10  1  0
  8 11  1  0
  9 12  2  0
 11 13  1  0
 11 14  2  0
 12 14  1  0
 10 15  1  0
 15 16  2  0
 15 17  1  0
 16 18  1  0
 17 19  2  0
 18 20  2  0
 19 20  1  0
 20 21  1  0
M  END
