mac-x0338-diamond-x1012_0_A
     RDKit          3D

 23 24  0  0  0  0  0  0  0  0999 V2000
   -4.0100   15.4470    2.0610 N   0  0  0  0  0  0  0  0  0  0  0  0
   -5.0480   15.1640    1.2150 C   0  0  0  0  0  0  0  0  0  0  0  0
   -6.1870   14.9760    1.6300 O   0  0  0  0  0  0  0  0  0  0  0  0
   -4.7060   15.0980   -0.2260 C   0  0  0  0  0  0  0  0  0  0  0  0
   -3.3950   15.0240   -0.5470 N   0  0  0  0  0  0  0  0  0  0  0  0
   -5.6970   15.1050   -1.1830 C   0  0  0  0  0  0  0  0  0  0  0  0
   -3.1220   14.9430   -1.8760 C   0  0  0  0  0  0  0  0  0  0  0  0
   -5.4260   15.0250   -2.5080 N   0  0  0  0  0  0  0  0  0  0  0  0
   -4.1120   14.9350   -2.8640 C   0  0  0  0  0  0  0  0  0  0  0  0
   -3.8730   14.7990   -4.3590 C   0  0  0  0  0  0  0  0  0  0  0  0
   -3.3410   15.8730   -5.3360 C   0  0  0  0  0  0  0  0  0  0  0  0
   -2.5860   17.0300   -4.8230 N   0  0  0  0  0  0  0  0  0  0  0  0
   -1.3080   16.9940   -4.7430 C   0  0  0  0  0  0  0  0  0  0  0  0
   -0.4890   18.0030   -4.3600 N   0  0  0  0  0  0  0  0  0  0  0  0
   -0.5610   15.8810   -5.0600 N   0  0  0  0  0  0  0  0  0  0  0  0
   -1.2010   14.5390   -5.1450 C   0  0  0  0  0  0  0  0  0  0  0  0
    0.8490   15.8650   -4.6480 C   0  0  0  0  0  0  0  0  0  0  0  0
   -1.1670   13.7480   -3.8410 C   0  0  0  0  0  0  0  0  0  0  0  0
    1.2360   14.4910   -4.0910 C   0  0  0  0  0  0  0  0  0  0  0  0
    0.1830   13.8840   -3.1510 C   0  0  0  0  0  0  0  0  0  0  0  0
    0.6670   12.5690   -2.5840 C   0  0  0  0  0  0  0  0  0  0  0  0
   -0.0920   11.4970   -2.9020 O   0  0  0  0  0  0  0  0  0  0  0  0
    1.6420   12.4200   -1.8950 O   0  0  0  0  0  0  0  0  0  0  0  0
  1  2  1  0
  2  3  2  0
  2  4  1  0
  4  5  2  0
  4  6  1  0
  5  7  1  0
  6  8  2  0
  7  9  2  0
  8  9  1  0
  9 10  1  0
 10 11  1  0
 11 12  1  0
 12 13  2  3
 13 14  1  0
 13 15  1  0
 15 16  1  0
 15 17  1  0
 16 18  1  0
 17 19  1  0
 18 20  1  0
 19 20  1  0
 20 21  1  0
 21 22  1  0
 21 23  2  0
M  END
