mac-x0212-mac-x0417
     RDKit          3D

 28 30  0  0  0  0  0  0  0  0999 V2000
   -6.4360   12.7310    1.4050 C   0  0  0  0  0  0  0  0  0  0  0  0
   -6.9160   14.4090    1.0560 S   0  0  0  0  0  0  0  0  0  0  0  0
   -7.8110   14.8730    2.0920 O   0  0  0  0  0  0  0  0  0  0  0  0
   -7.2860   14.5030   -0.3410 O   0  0  0  0  0  0  0  0  0  0  0  0
   -5.4030   15.1640    1.1890 N   0  0  0  0  0  0  0  0  0  0  0  0
   -4.4980   15.0500    0.1110 C   0  0  0  0  0  0  0  0  0  0  0  0
   -3.2360   14.5180    0.3630 C   0  0  0  0  0  0  0  0  0  0  0  0
   -4.8690   15.4570   -1.1700 C   0  0  0  0  0  0  0  0  0  0  0  0
   -2.3240   14.3840   -0.6760 C   0  0  0  0  0  0  0  0  0  0  0  0
   -3.9610   15.3230   -2.2140 C   0  0  0  0  0  0  0  0  0  0  0  0
   -2.6950   14.7870   -1.9580 C   0  0  0  0  0  0  0  0  0  0  0  0
   -1.7630   14.6630   -3.0840 C   0  0  0  0  0  0  0  0  0  0  0  0
   -0.5510   14.2600   -3.1520 N   0  0  0  0  0  0  0  0  0  0  0  0
   -2.3590   15.0660   -4.2230 O   0  0  0  0  0  0  0  0  0  0  0  0
    0.1960   13.7860   -1.9920 C   0  0  0  0  0  0  0  0  0  0  0  0
    1.1350   12.7640   -2.3440 O   0  0  0  0  0  0  0  0  0  0  0  0
    0.6690   11.9110   -3.2940 C   0  0  0  0  0  0  0  0  0  0  0  0
    0.4250   10.7270   -3.0930 O   0  0  0  0  0  0  0  0  0  0  0  0
    0.4770   12.6030   -4.6290 C   0  0  0  0  0  0  0  0  0  0  0  0
    0.3300   11.6650   -5.7650 C   0  0  0  0  0  0  0  0  0  0  0  0
    1.2730   11.6460   -6.7050 N   0  0  0  0  0  0  0  0  0  0  0  0
   -0.7020   10.7280   -6.0360 C   0  0  0  0  0  0  0  0  0  0  0  0
    0.8710   10.6870   -7.6230 O   0  0  0  0  0  0  0  0  0  0  0  0
   -0.3040   10.1390   -7.2220 C   0  0  0  0  0  0  0  0  0  0  0  0
   -1.9010   10.3080   -5.4400 C   0  0  0  0  0  0  0  0  0  0  0  0
   -1.0180    9.1410   -7.8800 C   0  0  0  0  0  0  0  0  0  0  0  0
   -2.6480    9.3010   -6.0780 C   0  0  0  0  0  0  0  0  0  0  0  0
   -2.2110    8.7320   -7.2740 C   0  0  0  0  0  0  0  0  0  0  0  0
  1  2  1  0
  2  3  2  0
  2  4  2  0
  2  5  1  0
  5  6  1  0
  6  7  2  0
  6  8  1  0
  7  9  1  0
  8 10  2  0
  9 11  2  0
 10 11  1  0
 11 12  1  0
 12 13  2  3
 12 14  1  0
 13 15  1  0
 15 16  1  0
 16 17  1  0
 17 18  2  0
 17 19  1  0
 19 20  1  0
 20 21  2  0
 20 22  1  0
 21 23  1  0
 22 24  2  0
 23 24  1  0
 22 25  1  0
 24 26  1  0
 25 27  2  0
 26 28  2  0
 27 28  1  0
M  END
