mac-x0319-mac-x0306
     RDKit          3D

 23 25  0  0  0  0  0  0  0  0999 V2000
    0.5490   10.4790   -2.4900 O   0  0  0  0  0  0  0  0  0  0  0  0
    0.8140   11.8120   -2.4160 C   0  0  0  0  0  0  0  0  0  0  0  0
    0.6040   12.3920   -1.3640 O   0  0  0  0  0  0  0  0  0  0  0  0
    1.3430   12.4200   -3.7020 C   0  0  0  0  0  0  0  0  0  0  0  0
    0.6760   13.7410   -3.9580 C   0  0  0  0  0  0  0  0  0  0  0  0
    1.3690   14.9270   -4.2540 C   0  0  0  0  0  0  0  0  0  0  0  0
   -0.7140   13.7650   -3.8820 C   0  0  0  0  0  0  0  0  0  0  0  0
    0.6400   16.1010   -4.4670 C   0  0  0  0  0  0  0  0  0  0  0  0
   -1.4340   14.9300   -4.0900 C   0  0  0  0  0  0  0  0  0  0  0  0
    1.2230   17.2930   -4.7580 O   0  0  0  0  0  0  0  0  0  0  0  0
   -2.9340   14.9080   -3.9970 C   0  0  0  0  0  0  0  0  0  0  0  0
   -0.7450   16.1070   -4.3890 C   0  0  0  0  0  0  0  0  0  0  0  0
   -3.5930   15.1170   -2.6790 N   0  0  0  0  0  0  0  0  0  0  0  0
   -4.9550   15.1640   -2.8270 C   0  0  0  0  0  0  0  0  0  0  0  0
   -3.1460   14.7060   -1.4050 C   0  0  0  0  0  0  0  0  0  0  0  0
   -5.8130   15.2850   -1.8390 C   0  0  0  0  0  0  0  0  0  0  0  0
   -3.9400   14.7950   -0.2960 C   0  0  0  0  0  0  0  0  0  0  0  0
   -5.3520   15.3680   -0.4180 C   0  0  0  0  0  0  0  0  0  0  0  0
   -6.4910   14.8680    0.4620 C   0  0  0  0  0  0  0  0  0  0  0  0
   -6.4050   14.5440    1.8000 N   0  0  0  0  0  0  0  0  0  0  0  0
   -7.7420   14.6940    0.0500 N   0  0  0  0  0  0  0  0  0  0  0  0
   -8.4550   14.2620    1.1270 C   0  0  0  0  0  0  0  0  0  0  0  0
   -7.6450   14.1620    2.2250 C   0  0  0  0  0  0  0  0  0  0  0  0
  1  2  1  0
  2  3  2  0
  2  4  1  0
  4  5  1  0
  5  6  2  0
  5  7  1  0
  6  8  1  0
  7  9  2  0
  8 10  1  0
  9 11  1  0
  8 12  2  0
  9 12  1  0
 11 13  1  0
 13 14  1  0
 13 15  1  0
 14 16  2  0
 15 17  2  0
 16 18  1  0
 17 18  1  0
 18 19  1  0
 19 20  1  0
 19 21  2  0
 21 22  1  0
 20 23  1  0
 22 23  2  0
M  END
