mac-x0385-diamond-x0128_0_A
     RDKit          3D

 26 28  0  0  0  0  0  0  0  0999 V2000
   -5.0070   15.9250   -0.7720 C   0  0  0  0  0  0  0  0  0  0  0  0
   -3.7090   15.4800   -0.1960 C   0  0  0  0  0  0  0  0  0  0  0  0
   -2.7150   15.0730   -1.0690 C   0  0  0  0  0  0  0  0  0  0  0  0
   -3.4020   15.4460    1.1820 C   0  0  0  0  0  0  0  0  0  0  0  0
   -4.3700   15.8670    2.1520 N   0  0  0  0  0  0  0  0  0  0  0  0
   -2.1900   15.0330    1.5900 N   0  0  0  0  0  0  0  0  0  0  0  0
   -1.5060   14.6770   -0.6780 N   0  0  0  0  0  0  0  0  0  0  0  0
   -5.0170   14.9290    3.0930 C   0  0  0  0  0  0  0  0  0  0  0  0
   -1.3080   14.6830    0.6440 C   0  0  0  0  0  0  0  0  0  0  0  0
    0.0100   14.2700    1.1220 C   0  0  0  0  0  0  0  0  0  0  0  0
   -6.3280   14.6270    2.5130 N   0  0  0  0  0  0  0  0  0  0  0  0
   -7.5400   15.1080    3.1170 C   0  0  0  0  0  0  0  0  0  0  0  0
   -6.1940   14.4790    1.1020 C   0  0  0  0  0  0  0  0  0  0  0  0
   -8.5590   15.3510    2.4750 O   0  0  0  0  0  0  0  0  0  0  0  0
   -7.4880   15.2920    4.4970 N   0  0  0  0  0  0  0  0  0  0  0  0
   -7.1930   14.7670    0.1610 C   0  0  0  0  0  0  0  0  0  0  0  0
   -4.9680   14.0200    0.6050 C   0  0  0  0  0  0  0  0  0  0  0  0
   -6.9680   14.6130   -1.2160 C   0  0  0  0  0  0  0  0  0  0  0  0
   -4.7430   13.8670   -0.7610 C   0  0  0  0  0  0  0  0  0  0  0  0
   -8.3650   16.0870    5.2830 C   0  0  0  0  0  0  0  0  0  0  0  0
   -5.7360   14.1630   -1.6760 C   0  0  0  0  0  0  0  0  0  0  0  0
   -9.0630   17.2110    4.8420 C   0  0  0  0  0  0  0  0  0  0  0  0
   -8.5520   15.7190    6.6170 C   0  0  0  0  0  0  0  0  0  0  0  0
   -9.8960   17.9520    5.6230 N   0  0  0  0  0  0  0  0  0  0  0  0
   -9.4010   16.4640    7.4410 C   0  0  0  0  0  0  0  0  0  0  0  0
  -10.0440   17.5630    6.8990 C   0  0  0  0  0  0  0  0  0  0  0  0
  1  2  1  0
  2  3  2  0
  2  4  1  0
  4  5  1  0
  4  6  2  0
  3  7  1  0
  5  8  1  0
  6  9  1  0
  7  9  2  0
  9 10  1  0
  8 11  1  0
 11 12  1  0
 11 13  1  0
 12 14  2  0
 12 15  1  0
 13 16  2  0
 13 17  1  0
 16 18  1  0
 17 19  2  0
 15 20  1  0
 18 21  2  0
 19 21  1  0
 20 22  2  0
 20 23  1  0
 22 24  1  0
 23 25  2  0
 24 26  2  0
 25 26  1  0
M  END
