mac-x0124-mac-x0415
     RDKit          3D

 26 29  0  0  0  0  0  0  0  0999 V2000
   -0.7840   15.0080   -3.2350 C   0  0  0  0  0  0  0  0  0  0  0  0
   -1.9500   15.0400   -2.4080 N   0  0  0  0  0  0  0  0  0  0  0  0
   -3.2160   14.5840   -2.7050 C   0  0  0  0  0  0  0  0  0  0  0  0
   -1.7330   14.5660   -1.0710 C   0  0  2  0  0  0  0  0  0  0  0  0
   -3.9520   14.5300   -1.5650 C   0  0  0  0  0  0  0  0  0  0  0  0
   -3.0550   15.0270   -0.4520 C   0  0  1  0  0  0  0  0  0  0  0  0
   -0.5030   14.7020   -0.3760 N   0  0  0  0  0  0  0  0  0  0  0  0
    0.2350   13.4940   -0.6390 C   0  0  0  0  0  0  0  0  0  0  0  0
   -3.1480   14.5310    0.9850 C   0  0  2  0  0  0  0  0  0  0  0  0
   -0.6790   15.0270    1.0120 C   0  0  0  0  0  0  0  0  0  0  0  0
   -3.9740   15.3390    1.8560 N   0  0  0  0  0  0  0  0  0  0  0  0
    0.7600   13.4970   -1.9900 N   0  0  0  0  0  0  0  0  0  0  0  0
   -1.8390   14.3880    1.6310 N   0  0  0  0  0  0  0  0  0  0  0  0
    0.6670   12.4890   -2.7810 C   0  0  0  0  0  0  0  0  0  0  0  0
    0.1230   11.2950   -2.4760 O   0  0  0  0  0  0  0  0  0  0  0  0
    1.1710   12.6810   -4.1850 C   0  0  0  0  0  0  0  0  0  0  0  0
    0.9200   14.1070   -4.5110 C   0  0  0  0  0  0  0  0  0  0  0  0
    1.8370   15.1970   -4.1850 C   0  0  0  0  0  0  0  0  0  0  0  0
   -0.0910   14.8150   -5.0480 C   0  0  0  0  0  0  0  0  0  0  0  0
    1.4920   16.4080   -4.4830 N   0  0  0  0  0  0  0  0  0  0  0  0
    0.2540   16.2660   -5.1820 C   0  0  2  0  0  0  0  0  0  0  0  0
   -1.4000   14.4260   -5.5100 C   0  0  0  0  0  0  0  0  0  0  0  0
   -0.8460   17.1870   -4.8490 C   0  0  0  0  0  0  0  0  0  0  0  0
   -2.3740   15.3800   -5.4880 C   0  0  0  0  0  0  0  0  0  0  0  0
   -4.1100   15.0250   -6.0680 Br  0  0  0  0  0  0  0  0  0  0  0  0
   -2.0930   16.7390   -5.0100 C   0  0  0  0  0  0  0  0  0  0  0  0
  1  2  1  0
  2  3  1  0
  4  2  1  6
  3  5  2  0
  4  6  1  0
  6  5  1  6
  4  7  1  0
  7  8  1  0
  6  9  1  0
  7 10  1  0
  9 11  1  1
  8 12  1  0
  9 13  1  0
 10 13  1  0
 12 14  2  3
 14 15  1  0
 14 16  1  0
 16 17  1  0
 17 18  1  0
 17 19  2  0
 18 20  2  0
 19 21  1  0
 20 21  1  0
 19 22  1  0
 21 23  1  1
 22 24  2  0
 24 25  1  0
 23 26  2  0
 24 26  1  0
M  END
