mac-x0527-mac-x0178
     RDKit          3D

 29 31  0  0  0  0  0  0  0  0999 V2000
   -3.5200   15.8690   -3.4220 O   0  0  0  0  0  0  0  0  0  0  0  0
   -3.4900   14.9070   -2.6830 C   0  0  0  0  0  0  0  0  0  0  0  0
   -3.0370   13.6600   -3.0340 N   0  0  0  0  0  0  0  0  0  0  0  0
   -3.9990   14.9770   -1.2930 C   0  0  0  0  0  0  0  0  0  0  0  0
   -1.6680   13.3040   -3.2770 C   0  0  1  0  0  0  0  0  0  0  0  0
   -5.3600   15.0580   -1.0990 C   0  0  0  0  0  0  0  0  0  0  0  0
   -3.0990   14.9510   -0.2630 N   0  0  0  0  0  0  0  0  0  0  0  0
   -1.4200   12.3060   -4.3640 C   0  0  0  0  0  0  0  0  0  0  0  0
   -5.9030   15.1110    0.1360 N   0  0  0  0  0  0  0  0  0  0  0  0
   -3.6530   15.0080    0.9690 C   0  0  0  0  0  0  0  0  0  0  0  0
   -0.8930   14.4450   -3.7100 C   0  0  0  0  0  0  0  0  0  0  0  0
   -2.1540   11.1400   -4.4620 C   0  0  0  0  0  0  0  0  0  0  0  0
   -0.4000   12.5740   -5.3130 C   0  0  0  0  0  0  0  0  0  0  0  0
   -5.0200   15.0850    1.1640 C   0  0  0  0  0  0  0  0  0  0  0  0
    0.4460   14.4770   -3.3820 C   0  0  0  0  0  0  0  0  0  0  0  0
   -1.5000   15.4520   -4.4370 C   0  0  0  0  0  0  0  0  0  0  0  0
    1.0710   13.3710   -2.6110 C   0  0  0  0  0  0  0  0  0  0  0  0
   -1.8890   10.2410   -5.4760 C   0  0  0  0  0  0  0  0  0  0  0  0
   -0.1350   11.6710   -6.3290 C   0  0  0  0  0  0  0  0  0  0  0  0
   -0.7590   16.5320   -4.8390 C   0  0  0  0  0  0  0  0  0  0  0  0
    1.2120   15.5690   -3.7890 C   0  0  0  0  0  0  0  0  0  0  0  0
   -1.5790   17.8050   -5.7540 S   0  0  0  0  0  0  0  0  0  0  0  0
    1.7620   13.4880   -1.6300 O   0  0  0  0  0  0  0  0  0  0  0  0
    0.7570   12.1750   -3.1410 O   0  0  0  0  0  0  0  0  0  0  0  0
   -0.8840   10.5010   -6.4090 C   0  0  0  0  0  0  0  0  0  0  0  0
    0.6060   16.6020   -4.5190 C   0  0  0  0  0  0  0  0  0  0  0  0
   -0.2880   18.5370   -6.5290 N   0  0  0  0  0  0  0  0  0  0  0  0
   -2.4340   17.2070   -6.7530 O   0  0  0  0  0  0  0  0  0  0  0  0
   -2.0970   18.7600   -4.8120 O   0  0  0  0  0  0  0  0  0  0  0  0
  1  2  2  0
  2  3  1  0
  2  4  1  0
  5  3  1  6
  4  6  2  0
  4  7  1  0
  5  8  1  0
  6  9  1  0
  7 10  2  0
  5 11  1  0
  8 12  2  0
  8 13  1  0
  9 14  2  0
 10 14  1  0
 11 15  2  0
 11 16  1  0
 15 17  1  0
 12 18  1  0
 13 19  2  0
 16 20  2  0
 15 21  1  0
 20 22  1  0
 17 23  2  0
 17 24  1  0
 18 25  2  0
 19 25  1  0
 20 26  1  0
 21 26  2  0
 22 27  1  0
 22 28  2  0
 22 29  2  0
M  END
