mac-x0398-mac-x0584
     RDKit          3D

 25 28  0  0  0  0  0  0  0  0999 V2000
   -6.2140   14.3320    1.9330 N   0  0  0  0  0  0  0  0  0  0  0  0
   -5.3640   14.7560    0.8340 C   0  0  1  0  0  0  0  0  0  0  0  0
   -4.0530   13.9490    0.5430 C   0  0  0  0  0  0  0  0  0  0  0  0
   -6.2310   14.8460   -0.4010 C   0  0  0  0  0  0  0  0  0  0  0  0
   -5.5270   15.4640   -1.5790 C   0  0  2  0  0  0  0  0  0  0  0  0
   -3.1560   14.6250   -0.5670 C   0  0  1  0  0  0  0  0  0  0  0  0
   -6.3050   15.2230   -2.7640 O   0  0  0  0  0  0  0  0  0  0  0  0
   -4.0950   14.9370   -1.7880 C   0  0  2  0  0  0  0  0  0  0  0  0
   -2.5430   15.8420    0.1280 C   0  0  0  0  0  0  0  0  0  0  0  0
   -1.7730   13.9810   -1.1250 C   0  0  1  0  0  0  0  0  0  0  0  0
   -3.4770   15.6240   -2.9620 C   0  0  0  0  0  0  0  0  0  0  0  0
   -1.5010   14.0080   -2.6130 N   0  0  0  0  0  0  0  0  0  0  0  0
   -0.5590   14.5710   -0.5460 N   0  0  0  0  0  0  0  0  0  0  0  0
   -1.7480   15.3940    1.2800 N   0  0  0  0  0  0  0  0  0  0  0  0
   -3.9970   15.6840   -4.0650 O   0  0  0  0  0  0  0  0  0  0  0  0
   -2.2760   16.1770   -2.7390 O   0  0  0  0  0  0  0  0  0  0  0  0
   -0.2450   14.5120   -3.2170 C   0  0  1  0  0  0  0  0  0  0  0  0
   -2.5690   14.1390   -3.6240 C   0  0  0  0  0  0  0  0  0  0  0  0
   -0.5550   14.7000    0.8830 C   0  0  0  0  0  0  0  0  0  0  0  0
    0.4650   13.3310   -3.8690 C   0  0  0  0  0  0  0  0  0  0  0  0
   -0.6750   15.4850   -4.3160 C   0  0  0  0  0  0  0  0  0  0  0  0
   -1.9810   14.9030   -4.8190 C   0  0  0  0  0  0  0  0  0  0  0  0
    1.9060   12.9510   -3.4460 C   0  0  0  0  0  0  0  0  0  0  0  0
    0.1040   11.8490   -3.5810 C   0  0  0  0  0  0  0  0  0  0  0  0
    1.5460   11.5860   -4.0490 C   0  0  0  0  0  0  0  0  0  0  0  0
  2  1  1  1
  2  3  1  0
  2  4  1  0
  4  5  1  0
  6  3  1  1
  5  7  1  6
  5  8  1  0
  6  8  1  0
  6  9  1  0
  6 10  1  0
  8 11  1  6
 10 12  1  6
 10 13  1  0
  9 14  1  0
 11 15  2  0
 11 16  1  0
 12 17  1  0
 12 18  1  0
 13 19  1  0
 14 19  1  0
 17 20  1  6
 17 21  1  0
 18 22  1  0
 21 22  1  0
 20 23  1  0
 20 24  1  0
 23 25  1  0
 24 25  1  0
M  END
