mac-x0396-mac-x0338
     RDKit          3D

 17 18  0  0  0  0  0  0  0  0999 V2000
   -3.6660   14.5080    1.4000 N   0  0  0  0  0  0  0  0  0  0  0  0
   -4.3750   13.5690    0.7240 C   0  0  0  0  0  0  0  0  0  0  0  0
   -3.8190   12.6180    0.1970 O   0  0  0  0  0  0  0  0  0  0  0  0
   -3.7990   15.7000    0.7620 C   0  0  0  0  0  0  0  0  0  0  0  0
   -3.8340   16.8070    1.2480 O   0  0  0  0  0  0  0  0  0  0  0  0
   -5.8310   13.7780    0.5900 C   0  0  0  0  0  0  0  0  0  0  0  0
   -3.9220   15.4310   -0.6850 C   0  0  0  0  0  0  0  0  0  0  0  0
   -6.5490   13.4500   -0.5530 C   0  0  0  0  0  0  0  0  0  0  0  0
   -6.5340   14.3400    1.6550 C   0  0  0  0  0  0  0  0  0  0  0  0
   -2.7660   15.0480   -1.3030 N   0  0  0  0  0  0  0  0  0  0  0  0
   -5.1280   15.5480   -1.3470 C   0  0  0  0  0  0  0  0  0  0  0  0
   -7.8870   13.6440   -0.6910 N   0  0  0  0  0  0  0  0  0  0  0  0
   -7.9030   14.5490    1.5420 C   0  0  0  0  0  0  0  0  0  0  0  0
   -2.8880   14.7960   -2.6230 C   0  0  0  0  0  0  0  0  0  0  0  0
   -5.2360   15.2830   -2.6710 N   0  0  0  0  0  0  0  0  0  0  0  0
   -8.5300   14.1910    0.3630 C   0  0  0  0  0  0  0  0  0  0  0  0
   -4.0940   14.9090   -3.2900 C   0  0  0  0  0  0  0  0  0  0  0  0
  1  2  1  0
  2  3  2  0
  1  4  1  0
  4  5  2  0
  2  6  1  0
  4  7  1  0
  6  8  2  0
  6  9  1  0
  7 10  2  0
  7 11  1  0
  8 12  1  0
  9 13  2  0
 10 14  1  0
 11 15  2  0
 12 16  2  0
 13 16  1  0
 14 17  2  0
 15 17  1  0
M  END
