mac-x0123-mac-x0402
     RDKit          3D

 15 17  0  0  0  0  0  0  0  0999 V2000
   -3.4460   14.7320    1.7660 N   0  0  0  0  0  0  0  0  0  0  0  0
   -4.6340   14.8770    0.9130 C   0  0  2  0  0  0  0  0  0  0  0  0
   -6.0330   14.4660    1.5330 C   0  0  1  0  0  0  0  0  0  0  0  0
   -4.3520   14.1490   -0.3280 N   0  0  0  0  0  0  0  0  0  0  0  0
   -6.3180   15.1860    2.7860 N   0  0  0  0  0  0  0  0  0  0  0  0
   -5.4500   13.9970   -1.2700 C   0  0  1  0  0  0  0  0  0  0  0  0
   -7.1450   14.6410    0.4250 C   0  0  1  0  0  0  0  0  0  0  0  0
   -6.2380   13.0590    1.9630 C   0  0  0  0  0  0  0  0  0  0  0  0
   -3.1490   14.5950   -1.0460 N   0  0  0  0  0  0  0  0  0  0  0  0
   -6.6490   14.7740   -0.9790 N   0  0  0  0  0  0  0  0  0  0  0  0
   -8.1410   13.5030    0.6460 C   0  0  0  0  0  0  0  0  0  0  0  0
   -7.3820   12.5450    1.5010 C   0  0  0  0  0  0  0  0  0  0  0  0
   -4.9260   14.4500   -2.5530 N   0  0  0  0  0  0  0  0  0  0  0  0
   -3.6830   15.1430   -2.2670 C   0  0  2  0  0  0  0  0  0  0  0  0
   -2.5180   14.7570   -3.5350 Cl  0  0  0  0  0  0  0  0  0  0  0  0
  2  1  1  1
  2  3  1  0
  2  4  1  0
  3  5  1  1
  4  6  1  0
  3  7  1  0
  3  8  1  0
  4  9  1  0
  6 10  1  1
  7 10  1  0
  7 11  1  6
  8 12  2  0
 11 12  1  0
  6 13  1  0
  9 14  1  0
 13 14  1  0
 14 15  1  6
M  END
