mac-x0411-mac-x0404
     RDKit          3D

 24 26  0  0  0  0  0  0  0  0999 V2000
    0.7570    9.4540   -7.9750 Cl  0  0  0  0  0  0  0  0  0  0  0  0
   -0.4910    9.7530   -6.8170 C   0  0  0  0  0  0  0  0  0  0  0  0
   -0.5470   10.9100   -5.9980 C   0  0  0  0  0  0  0  0  0  0  0  0
   -1.4770    8.7630   -6.7340 C   0  0  0  0  0  0  0  0  0  0  0  0
    0.4150   11.9220   -6.0810 O   0  0  0  0  0  0  0  0  0  0  0  0
   -1.6340   11.0060   -5.0980 C   0  0  0  0  0  0  0  0  0  0  0  0
   -2.5340    8.8900   -5.8470 C   0  0  0  0  0  0  0  0  0  0  0  0
   -1.8640   12.3260   -4.0160 Cl  0  0  0  0  0  0  0  0  0  0  0  0
    1.1710   12.4890   -4.9550 C   0  0  2  0  0  0  0  0  0  0  0  0
   -2.6100   10.0070   -5.0320 C   0  0  0  0  0  0  0  0  0  0  0  0
    0.8420   11.8260   -3.6050 C   0  0  0  0  0  0  0  0  0  0  0  0
    1.0420   13.9140   -4.7330 O   0  0  0  0  0  0  0  0  0  0  0  0
    1.2220   12.5950   -2.5520 O   0  0  0  0  0  0  0  0  0  0  0  0
    0.3270   10.7460   -3.3750 O   0  0  0  0  0  0  0  0  0  0  0  0
   -0.1880   14.4890   -4.9530 C   0  0  0  0  0  0  0  0  0  0  0  0
   -0.2560   15.8880   -5.1340 C   0  0  0  0  0  0  0  0  0  0  0  0
   -1.3540   13.7370   -5.0090 C   0  0  0  0  0  0  0  0  0  0  0  0
   -1.5150   16.4920   -5.3700 C   0  0  0  0  0  0  0  0  0  0  0  0
   -2.5880   14.3400   -5.2360 C   0  0  0  0  0  0  0  0  0  0  0  0
    0.8730   16.7130   -5.0970 C   0  0  0  0  0  0  0  0  0  0  0  0
   -2.6700   15.7090   -5.4140 C   0  0  0  0  0  0  0  0  0  0  0  0
   -1.6020   17.8650   -5.5660 C   0  0  0  0  0  0  0  0  0  0  0  0
    0.7750   18.0860   -5.2950 C   0  0  0  0  0  0  0  0  0  0  0  0
   -0.4700   18.6550   -5.5330 C   0  0  0  0  0  0  0  0  0  0  0  0
  1  2  1  0
  2  3  2  0
  2  4  1  0
  3  5  1  0
  3  6  1  0
  4  7  2  0
  6  8  1  0
  9  5  1  6
  6 10  2  0
  7 10  1  0
  9 11  1  0
  9 12  1  0
 11 13  1  0
 11 14  2  0
 12 15  1  0
 15 16  1  0
 15 17  2  0
 16 18  2  0
 17 19  1  0
 16 20  1  0
 18 21  1  0
 19 21  2  0
 18 22  1  0
 20 23  2  0
 22 24  2  0
 23 24  1  0
M  END
