mac-x0433-mac-x0404
     RDKit          3D

 26 28  0  0  0  0  0  0  0  0999 V2000
   -3.0510   15.2570    0.7100 C   0  0  0  0  0  0  0  0  0  0  0  0
   -4.3580   15.1010   -0.0020 C   0  0  0  0  0  0  0  0  0  0  0  0
   -5.4990   14.8930    0.7290 C   0  0  0  0  0  0  0  0  0  0  0  0
   -4.3680   15.1670   -1.3520 N   0  0  0  0  0  0  0  0  0  0  0  0
   -5.5460   15.0220   -1.9760 C   0  0  0  0  0  0  0  0  0  0  0  0
   -6.6690   14.7540    0.0170 C   0  0  0  0  0  0  0  0  0  0  0  0
   -7.9580   14.5250    0.7470 C   0  0  0  0  0  0  0  0  0  0  0  0
   -5.6340   15.0750   -3.3700 N   0  0  0  0  0  0  0  0  0  0  0  0
   -6.7070   14.8170   -1.3310 N   0  0  0  0  0  0  0  0  0  0  0  0
   -4.6740   14.3160   -4.1850 C   0  0  0  0  0  0  0  0  0  0  0  0
   -3.9520   15.1050   -5.3320 C   0  0  0  0  0  0  0  0  0  0  0  0
   -2.4620   15.0260   -5.1230 C   0  0  0  0  0  0  0  0  0  0  0  0
   -1.4950   16.0930   -5.1730 C   0  0  0  0  0  0  0  0  0  0  0  0
   -2.0600   13.7260   -4.8490 C   0  0  0  0  0  0  0  0  0  0  0  0
   -0.1450   15.7480   -4.9190 C   0  0  0  0  0  0  0  0  0  0  0  0
   -0.7460   13.4130   -4.6110 C   0  0  0  0  0  0  0  0  0  0  0  0
   -1.7550   17.4610   -5.4540 C   0  0  0  0  0  0  0  0  0  0  0  0
    0.2040   14.4190   -4.6410 C   0  0  0  0  0  0  0  0  0  0  0  0
   -0.7370   18.4230   -5.4760 C   0  0  0  0  0  0  0  0  0  0  0  0
    0.8480   16.7210   -4.9450 C   0  0  0  0  0  0  0  0  0  0  0  0
    1.5240   14.1190   -4.3930 O   0  0  0  0  0  0  0  0  0  0  0  0
    0.5730   18.0510   -5.2180 C   0  0  0  0  0  0  0  0  0  0  0  0
    1.7780   12.7130   -4.2580 C   0  0  0  0  0  0  0  0  0  0  0  0
    1.0710   12.1520   -3.0260 C   0  0  0  0  0  0  0  0  0  0  0  0
    1.1280   12.9570   -1.9370 O   0  0  0  0  0  0  0  0  0  0  0  0
    0.5050   11.0700   -2.9910 O   0  0  0  0  0  0  0  0  0  0  0  0
  1  2  1  0
  2  3  2  0
  2  4  1  0
  4  5  2  0
  3  6  1  0
  6  7  1  0
  5  8  1  0
  5  9  1  0
  6  9  2  0
  8 10  1  0
 10 11  1  0
 11 12  1  0
 12 13  1  0
 12 14  2  0
 13 15  2  0
 14 16  1  0
 13 17  1  0
 15 18  1  0
 16 18  2  0
 17 19  2  0
 15 20  1  0
 18 21  1  0
 19 22  1  0
 20 22  2  0
 21 23  1  0
 23 24  1  0
 24 25  1  0
 24 26  2  0
M  END
