mac-x0303-diamond-x1012_0_A
     RDKit          3D

 27 29  0  0  0  0  0  0  0  0999 V2000
   -8.3790   12.9880    2.8350 N   0  0  0  0  0  0  0  0  0  0  0  0
   -8.4770   14.5520    2.2150 S   0  0  0  0  0  0  0  0  0  0  0  0
   -8.1950   15.4840    3.2770 O   0  0  0  0  0  0  0  0  0  0  0  0
   -9.6630   14.6480    1.3990 O   0  0  0  0  0  0  0  0  0  0  0  0
   -7.1330   14.7060    1.0840 C   0  0  0  0  0  0  0  0  0  0  0  0
   -7.3230   14.6370   -0.2600 N   0  0  0  0  0  0  0  0  0  0  0  0
   -5.8510   14.9010    1.3800 N   0  0  0  0  0  0  0  0  0  0  0  0
   -6.1120   14.7800   -0.8600 C   0  0  0  0  0  0  0  0  0  0  0  0
   -5.2040   14.9480    0.1700 C   0  0  0  0  0  0  0  0  0  0  0  0
   -5.7690   14.7680   -2.1910 C   0  0  0  0  0  0  0  0  0  0  0  0
   -3.8440   15.1270   -0.1440 C   0  0  0  0  0  0  0  0  0  0  0  0
   -4.4300   14.9210   -2.5190 C   0  0  0  0  0  0  0  0  0  0  0  0
   -3.4660   15.1090   -1.5030 C   0  0  0  0  0  0  0  0  0  0  0  0
   -4.1230   14.8490   -4.0010 C   0  0  0  0  0  0  0  0  0  0  0  0
   -3.3860   16.0370   -4.5650 C   0  0  0  0  0  0  0  0  0  0  0  0
   -2.1120   15.6210   -4.8600 N   0  0  0  0  0  0  0  0  0  0  0  0
   -1.1030   16.3500   -4.9190 C   0  0  0  0  0  0  0  0  0  0  0  0
   -0.9170   17.6970   -4.7500 N   0  0  0  0  0  0  0  0  0  0  0  0
   -0.0430   15.5820   -5.1970 N   0  0  0  0  0  0  0  0  0  0  0  0
   -0.3770   14.1650   -5.4130 C   0  0  0  0  0  0  0  0  0  0  0  0
    1.1350   15.7400   -4.3530 C   0  0  0  0  0  0  0  0  0  0  0  0
   -0.8530   13.5520   -4.1020 C   0  0  0  0  0  0  0  0  0  0  0  0
    1.4150   14.4960   -3.5020 C   0  0  0  0  0  0  0  0  0  0  0  0
    0.1150   13.8640   -2.9830 C   0  0  0  0  0  0  0  0  0  0  0  0
    0.3420   12.6160   -2.1680 C   0  0  0  0  0  0  0  0  0  0  0  0
    0.3120   11.4640   -2.8850 O   0  0  0  0  0  0  0  0  0  0  0  0
    0.5050   12.6500   -0.9730 O   0  0  0  0  0  0  0  0  0  0  0  0
  2  1  1  0
  2  3  2  0
  2  4  2  0
  2  5  1  0
  5  6  1  0
  5  7  2  0
  6  8  1  0
  7  9  1  0
  8  9  2  0
  8 10  1  0
  9 11  1  0
 10 12  2  0
 11 13  2  0
 12 13  1  0
 12 14  1  0
 14 15  1  0
 15 16  1  0
 16 17  2  3
 17 18  1  0
 17 19  1  0
 19 20  1  0
 19 21  1  0
 20 22  1  0
 21 23  1  0
 22 24  1  0
 23 24  1  0
 24 25  1  0
 25 26  1  0
 25 27  2  0
M  END
