mac-x0263-diamond-x1012_0_A
     RDKit          3D

 28 30  0  0  0  0  0  0  0  0999 V2000
  -11.5570   14.3100    2.5180 O   0  0  0  0  0  0  0  0  0  0  0  0
  -10.8630   15.4300    2.7860 C   0  0  0  0  0  0  0  0  0  0  0  0
  -11.2140   16.1850    3.6770 O   0  0  0  0  0  0  0  0  0  0  0  0
   -9.6790   15.6080    1.8800 C   0  0  0  0  0  0  0  0  0  0  0  0
   -9.0420   14.2960    1.4330 C   0  0  0  0  0  0  0  0  0  0  0  0
   -7.6770   14.5690    0.9190 C   0  0  0  0  0  0  0  0  0  0  0  0
   -7.3950   14.7850   -0.4080 N   0  0  0  0  0  0  0  0  0  0  0  0
   -6.5980   14.6480    1.6510 N   0  0  0  0  0  0  0  0  0  0  0  0
   -6.0520   15.0230   -0.5190 C   0  0  0  0  0  0  0  0  0  0  0  0
   -5.5800   14.9330    0.7840 C   0  0  0  0  0  0  0  0  0  0  0  0
   -5.2240   15.3020   -1.6020 C   0  0  0  0  0  0  0  0  0  0  0  0
   -4.2270   15.1300    1.0570 C   0  0  0  0  0  0  0  0  0  0  0  0
   -3.8630   15.4890   -1.3080 C   0  0  0  0  0  0  0  0  0  0  0  0
   -3.3830   15.4070   -0.0030 C   0  0  0  0  0  0  0  0  0  0  0  0
   -2.8470   15.7760   -2.3570 C   0  0  0  0  0  0  0  0  0  0  0  0
   -3.3260   15.9170   -3.7900 C   0  0  0  0  0  0  0  0  0  0  0  0
   -2.2780   15.3810   -4.5040 N   0  0  0  0  0  0  0  0  0  0  0  0
   -1.2180   16.0250   -4.6800 C   0  0  0  0  0  0  0  0  0  0  0  0
   -0.9910   17.3030   -4.2740 N   0  0  0  0  0  0  0  0  0  0  0  0
   -0.1890   15.4650   -5.2510 N   0  0  0  0  0  0  0  0  0  0  0  0
   -0.5510   14.0830   -5.5530 C   0  0  0  0  0  0  0  0  0  0  0  0
    1.0670   15.6240   -4.5130 C   0  0  0  0  0  0  0  0  0  0  0  0
   -0.6770   13.2680   -4.2850 C   0  0  0  0  0  0  0  0  0  0  0  0
    1.0900   14.7380   -3.2550 C   0  0  0  0  0  0  0  0  0  0  0  0
    0.6580   13.2910   -3.5700 C   0  0  0  0  0  0  0  0  0  0  0  0
    0.5390   12.4010   -2.3460 C   0  0  0  0  0  0  0  0  0  0  0  0
    0.3320   11.1060   -2.6650 O   0  0  0  0  0  0  0  0  0  0  0  0
    0.6080   12.7710   -1.1880 O   0  0  0  0  0  0  0  0  0  0  0  0
  1  2  1  0
  2  3  2  0
  2  4  1  0
  4  5  1  0
  5  6  1  0
  6  7  1  0
  6  8  2  0
  7  9  1  0
  8 10  1  0
  9 10  2  0
  9 11  1  0
 10 12  1  0
 11 13  2  0
 12 14  2  0
 13 14  1  0
 13 15  1  0
 15 16  1  0
 16 17  1  0
 17 18  2  3
 18 19  1  0
 18 20  1  0
 20 21  1  0
 20 22  1  0
 21 23  1  0
 22 24  1  0
 23 25  1  0
 24 25  1  0
 25 26  1  0
 26 27  1  0
 26 28  2  0
M  END
