mac-x0305-mac-x0306
     RDKit          3D

 14 15  0  0  0  0  0  0  0  0999 V2000
    0.1320   13.0410   -0.3100 O   0  0  0  0  0  0  0  0  0  0  0  0
   -0.5990   13.6860   -1.2620 C   0  0  0  0  0  0  0  0  0  0  0  0
   -0.3650   13.5320   -2.4580 O   0  0  0  0  0  0  0  0  0  0  0  0
   -1.6980   14.6610   -0.7800 C   0  0  2  0  0  0  0  0  0  0  0  0
   -2.2870   14.5760    0.6430 C   0  0  2  0  0  0  0  0  0  0  0  0
   -2.8700   14.7660   -1.7140 N   0  0  0  0  0  0  0  0  0  0  0  0
   -1.2930   14.1620    1.6150 O   0  0  0  0  0  0  0  0  0  0  0  0
   -3.5780   13.7180    0.6900 C   0  0  0  0  0  0  0  0  0  0  0  0
   -4.1160   15.3460   -1.0630 C   0  0  0  0  0  0  0  0  0  0  0  0
   -4.7610   14.5130    0.1100 C   0  0  0  0  0  0  0  0  0  0  0  0
   -5.4060   15.2330    1.2390 N   0  0  0  0  0  0  0  0  0  0  0  0
   -5.9780   13.7310   -0.3480 N   0  0  0  0  0  0  0  0  0  0  0  0
   -7.0180   13.8420    0.5830 C   0  0  0  0  0  0  0  0  0  0  0  0
   -6.6750   14.7120    1.5200 C   0  0  0  0  0  0  0  0  0  0  0  0
  1  2  1  0
  2  3  2  0
  4  2  1  6
  4  5  1  0
  4  6  1  0
  5  7  1  1
  5  8  1  0
  6  9  1  0
  8 10  1  0
  9 10  1  0
 10 11  1  0
 10 12  1  0
 12 13  1  0
 11 14  1  0
 13 14  2  0
M  END
