mac-x0397-diamond-x0950_1_A
     RDKit          3D

 20 21  0  0  0  0  0  0  0  0999 V2000
   -6.6040   15.2940   -2.3620 Cl  0  0  0  0  0  0  0  0  0  0  0  0
   -5.0450   15.0460   -1.7230 C   0  0  0  0  0  0  0  0  0  0  0  0
   -4.9980   14.9100   -0.3380 C   0  0  0  0  0  0  0  0  0  0  0  0
   -3.8910   14.9720   -2.5090 C   0  0  0  0  0  0  0  0  0  0  0  0
   -6.0590   14.9520    0.5520 N   0  0  0  0  0  0  0  0  0  0  0  0
   -3.7580   14.7050    0.2390 C   0  0  0  0  0  0  0  0  0  0  0  0
   -2.6580   14.7520   -1.8880 C   0  0  0  0  0  0  0  0  0  0  0  0
   -1.3750   14.6300   -2.6510 C   0  0  0  0  0  0  0  0  0  0  0  0
   -5.6320   14.7880    1.7690 C   0  0  0  0  0  0  0  0  0  0  0  0
   -3.9420   14.5740    1.9180 S   0  0  0  0  0  0  0  0  0  0  0  0
   -2.5840   14.6230   -0.5010 C   0  0  0  0  0  0  0  0  0  0  0  0
   -6.4670   14.7900    2.8280 N   0  0  0  0  0  0  0  0  0  0  0  0
   -0.5410   13.5020   -2.0570 C   0  0  0  0  0  0  0  0  0  0  0  0
    0.8970   13.8900   -1.7340 C   0  0  0  0  0  0  0  0  0  0  0  0
    1.7470   12.8590   -2.2460 O   0  0  0  0  0  0  0  0  0  0  0  0
    1.1240   12.0370   -3.1360 C   0  0  0  0  0  0  0  0  0  0  0  0
    1.4030   12.5010   -4.5780 C   0  0  2  0  0  0  0  0  0  0  0  0
    0.4420   11.0630   -2.8280 O   0  0  0  0  0  0  0  0  0  0  0  0
    1.1060   13.9800   -4.7550 C   0  0  0  0  0  0  0  0  0  0  0  0
    0.6680   11.7620   -5.5510 O   0  0  0  0  0  0  0  0  0  0  0  0
  1  2  1  0
  2  3  2  0
  2  4  1  0
  3  5  1  0
  3  6  1  0
  4  7  2  0
  7  8  1  0
  5  9  2  0
  6 10  1  0
  9 10  1  0
  6 11  2  0
  7 11  1  0
  9 12  1  0
  8 13  1  0
 13 14  1  0
 14 15  1  0
 15 16  1  0
 16 17  1  0
 16 18  2  0
 17 19  1  1
 17 20  1  0
M  END
