mac-x0576-mac-x0326
     RDKit          3D

 23 25  0  0  0  0  0  0  0  0999 V2000
    0.2330   14.2850    1.5540 N   0  0  0  0  0  0  0  0  0  0  0  0
   -0.6510   15.1850    0.9390 C   0  0  2  0  0  0  0  0  0  0  0  0
   -1.9330   14.7130    1.3170 N   0  0  0  0  0  0  0  0  0  0  0  0
   -0.4690   15.0290   -0.4220 N   0  0  0  0  0  0  0  0  0  0  0  0
   -1.3310   15.6820   -1.2350 C   0  0  0  0  0  0  0  0  0  0  0  0
   -2.9420   15.5460    0.7050 C   0  0  1  0  0  0  0  0  0  0  0  0
   -0.9580   16.2090   -2.2720 O   0  0  0  0  0  0  0  0  0  0  0  0
   -2.7710   15.6620   -0.8140 C   0  0  2  0  0  0  0  0  0  0  0  0
   -4.1710   14.9380    1.1050 N   0  0  0  0  0  0  0  0  0  0  0  0
   -5.1800   14.6280    0.2520 C   0  0  0  0  0  0  0  0  0  0  0  0
   -3.2710   14.4660   -1.5250 C   0  0  1  0  0  0  0  0  0  0  0  0
   -6.3340   14.6290    0.6960 O   0  0  0  0  0  0  0  0  0  0  0  0
   -4.8180   14.2880   -1.2050 C   0  0  2  0  0  0  0  0  0  0  0  0
   -2.7710   14.4910   -3.0090 N   0  0  0  0  0  0  0  0  0  0  0  0
   -2.4490   13.4420   -0.7880 C   0  0  0  0  0  0  0  0  0  0  0  0
   -5.9600   15.3230   -2.1310 Cl  0  0  0  0  0  0  0  0  0  0  0  0
   -1.4760   13.7750   -3.3090 C   0  0  2  0  0  0  0  0  0  0  0  0
   -1.1320   12.8930   -1.8100 S   0  0  0  0  0  0  0  0  0  0  0  0
   -0.2490   14.5170   -3.9040 C   0  0  0  0  0  0  0  0  0  0  0  0
    0.8580   13.6040   -4.4480 C   0  0  0  0  0  0  0  0  0  0  0  0
    1.0730   12.3650   -3.6180 C   0  0  0  0  0  0  0  0  0  0  0  0
    0.2020   11.3730   -3.9060 O   0  0  0  0  0  0  0  0  0  0  0  0
    1.9300   12.2620   -2.7590 O   0  0  0  0  0  0  0  0  0  0  0  0
  2  1  1  1
  2  3  1  0
  2  4  1  0
  4  5  1  0
  6  3  1  6
  5  7  2  0
  8  5  1  1
  6  8  1  0
  6  9  1  0
  9 10  1  0
  8 11  1  0
 10 12  2  0
 10 13  1  0
 11 13  1  0
 11 14  1  0
 11 15  1  1
 13 16  1  6
 14 17  1  0
 15 18  2  0
 17 18  1  0
 17 19  1  1
 19 20  1  0
 20 21  1  0
 21 22  1  0
 21 23  2  0
M  END
