mac-x0587-mac-x0328
     RDKit          3D

 16 16  0  0  0  0  0  0  0  0999 V2000
    0.1570   16.0600   -4.0420 C   0  0  0  0  0  0  0  0  0  0  0  0
   -0.6000   14.7840   -3.6690 C   0  0  2  0  0  0  0  0  0  0  0  0
   -0.2130   13.4610   -4.9140 S   0  0  0  0  0  0  0  0  0  0  0  0
   -2.1230   15.0180   -3.5300 C   0  0  0  0  0  0  0  0  0  0  0  0
   -0.5070   11.8800   -4.0280 C   0  0  0  0  0  0  0  0  0  0  0  0
   -2.7710   15.3380   -4.5270 O   0  0  0  0  0  0  0  0  0  0  0  0
   -2.7550   14.8800   -2.2970 N   0  0  0  0  0  0  0  0  0  0  0  0
    0.4670   11.5040   -2.9400 C   0  0  0  0  0  0  0  0  0  0  0  0
   -4.1700   15.1110   -2.0550 C   0  0  0  0  0  0  0  0  0  0  0  0
   -2.1240   14.7360   -1.0430 C   0  0  0  0  0  0  0  0  0  0  0  0
    0.5420   10.3810   -2.4560 O   0  0  0  0  0  0  0  0  0  0  0  0
    1.2710   12.5000   -2.5110 O   0  0  0  0  0  0  0  0  0  0  0  0
   -0.9320   14.7320   -0.7670 O   0  0  0  0  0  0  0  0  0  0  0  0
   -4.2900   15.3090   -0.5520 C   0  0  2  0  0  0  0  0  0  0  0  0
   -3.1420   14.6050   -0.0890 N   0  0  0  0  0  0  0  0  0  0  0  0
   -5.4980   14.7400   -0.0560 O   0  0  0  0  0  0  0  0  0  0  0  0
  2  1  1  6
  2  3  1  0
  2  4  1  0
  3  5  1  0
  4  6  2  0
  4  7  1  0
  5  8  1  0
  7  9  1  0
  7 10  1  0
  8 11  2  0
  8 12  1  0
 10 13  2  0
  9 14  1  0
 10 15  1  0
 14 15  1  0
 14 16  1  1
M  END
