mac-x0357-mac-x0371
     RDKit          3D

 20 22  0  0  0  0  0  0  0  0999 V2000
    1.9880   13.1590   -4.1420 C   0  0  0  0  0  0  0  0  0  0  0  0
    1.0520   12.2030   -4.7660 C   0  0  0  0  0  0  0  0  0  0  0  0
    1.2100   11.8280   -6.0650 C   0  0  0  0  0  0  0  0  0  0  0  0
    1.0450   14.2910   -4.1720 C   0  0  0  0  0  0  0  0  0  0  0  0
    0.0600   11.7440   -4.0900 C   0  0  0  0  0  0  0  0  0  0  0  0
   -0.2910   14.1840   -3.8650 C   0  0  0  0  0  0  0  0  0  0  0  0
    1.6210   15.4410   -4.5480 C   0  0  0  0  0  0  0  0  0  0  0  0
    2.2650   12.3230   -6.7200 O   0  0  0  0  0  0  0  0  0  0  0  0
   -0.4780   12.0330   -2.4420 S   0  0  0  0  0  0  0  0  0  0  0  0
   -1.1780   13.0780   -3.3780 C   0  0  0  0  0  0  0  0  0  0  0  0
   -0.8900   10.8910   -4.5600 C   0  0  0  0  0  0  0  0  0  0  0  0
    0.2740   10.9540   -6.6400 C   0  0  0  0  0  0  0  0  0  0  0  0
   -1.0070   15.3450   -4.0280 C   0  0  0  0  0  0  0  0  0  0  0  0
    0.8930   16.5820   -4.6840 C   0  0  0  0  0  0  0  0  0  0  0  0
    0.2320   13.4360   -1.7380 O   0  0  0  0  0  0  0  0  0  0  0  0
    0.5540   11.2520   -1.7590 O   0  0  0  0  0  0  0  0  0  0  0  0
   -1.5680   11.2250   -2.0000 O   0  0  0  0  0  0  0  0  0  0  0  0
   -2.7370   15.1930   -3.6790 Cl  0  0  0  0  0  0  0  0  0  0  0  0
   -0.7720   10.4970   -5.8640 C   0  0  0  0  0  0  0  0  0  0  0  0
   -0.4400   16.5240   -4.4290 C   0  0  0  0  0  0  0  0  0  0  0  0
  1  2  1  0
  2  3  2  0
  1  4  1  0
  2  5  1  0
  4  6  2  0
  4  7  1  0
  3  8  1  0
  5  9  1  0
  6 10  1  0
  9 10  1  0
  5 11  2  0
  3 12  1  0
  6 13  1  0
  7 14  2  0
  9 15  2  0
  9 16  1  0
  9 17  1  0
 13 18  1  0
 11 19  1  0
 12 19  2  0
 13 20  2  0
 14 20  1  0
M  END
