mac-x0346-mac-x0116
     RDKit          3D

 20 22  0  0  0  0  0  0  0  0999 V2000
   -7.3160   14.6960    1.2980 O   0  0  0  0  0  0  0  0  0  0  0  0
   -7.5890   14.9090   -0.0600 N   0  0  0  0  0  0  0  0  0  0  0  0
   -6.5340   14.9640   -0.9180 C   0  0  0  0  0  0  0  0  0  0  0  0
   -7.1170   13.4060    1.5230 C   0  0  0  0  0  0  0  0  0  0  0  0
   -6.8110   12.6150    0.4500 O   0  0  0  0  0  0  0  0  0  0  0  0
   -7.1650   12.6610    2.6680 C   0  0  0  0  0  0  0  0  0  0  0  0
   -6.7150   15.3900   -2.0550 O   0  0  0  0  0  0  0  0  0  0  0  0
   -5.1630   14.4570   -0.4440 C   0  0  1  0  0  0  0  0  0  0  0  0
   -6.8870   11.3430    2.2900 C   0  0  0  0  0  0  0  0  0  0  0  0
   -6.6760   11.3610    0.9300 C   0  0  0  0  0  0  0  0  0  0  0  0
   -4.0900   14.7650   -1.5260 C   0  0  1  0  0  0  0  0  0  0  0  0
   -4.8340   14.9720    0.9410 C   0  0  0  0  0  0  0  0  0  0  0  0
   -4.6900   15.4620   -2.6230 O   0  0  0  0  0  0  0  0  0  0  0  0
   -2.8780   15.5720   -1.0480 C   0  0  0  0  0  0  0  0  0  0  0  0
   -3.5980   15.2790    1.3030 C   0  0  0  0  0  0  0  0  0  0  0  0
   -2.4360   15.1610    0.3520 C   0  0  1  0  0  0  0  0  0  0  0  0
   -1.8320   13.7880    0.2590 C   0  0  0  0  0  0  0  0  0  0  0  0
   -1.2470   15.9150    0.8080 N   0  0  0  0  0  0  0  0  0  0  0  0
   -0.5280   14.0990   -0.3030 N   0  0  0  0  0  0  0  0  0  0  0  0
   -0.1150   14.9930    0.7330 C   0  0  0  0  0  0  0  0  0  0  0  0
  1  2  1  0
  2  3  1  0
  1  4  1  0
  4  5  1  0
  4  6  2  0
  3  7  2  0
  8  3  1  6
  6  9  1  0
  5 10  1  0
  9 10  2  0
  8 11  1  0
  8 12  1  0
 11 13  1  6
 11 14  1  0
 12 15  2  0
 16 14  1  6
 16 15  1  0
 16 17  1  0
 16 18  1  0
 17 19  1  0
 18 20  1  0
 19 20  1  0
M  END
