mac-x0333-mac-x0375
     RDKit          3D

 24 26  0  0  0  0  0  0  0  0999 V2000
   -2.6090   15.1780   -2.8800 O   0  0  0  0  0  0  0  0  0  0  0  0
   -3.3950   15.0670   -1.7660 C   0  0  0  0  0  0  0  0  0  0  0  0
   -2.8860   14.8300   -0.4590 C   0  0  0  0  0  0  0  0  0  0  0  0
   -4.7630   15.2010   -2.0110 C   0  0  0  0  0  0  0  0  0  0  0  0
   -1.4070   14.6580   -0.1370 C   0  0  0  0  0  0  0  0  0  0  0  0
   -5.6210   15.0980   -0.9440 C   0  0  0  0  0  0  0  0  0  0  0  0
   -3.8120   14.7450    0.6060 C   0  0  0  0  0  0  0  0  0  0  0  0
   -0.4780   14.5540   -1.3610 C   0  0  0  0  0  0  0  0  0  0  0  0
   -5.1580   14.8800    0.3260 C   0  0  0  0  0  0  0  0  0  0  0  0
   -6.9770   15.1870   -0.9860 O   0  0  0  0  0  0  0  0  0  0  0  0
    0.3430   13.2720   -1.3560 C   0  0  0  0  0  0  0  0  0  0  0  0
   -6.1850   14.8180    1.2200 O   0  0  0  0  0  0  0  0  0  0  0  0
   -7.2860   14.6440    0.3100 C   0  0  0  0  0  0  0  0  0  0  0  0
    1.1550   13.1920   -2.5490 O   0  0  0  0  0  0  0  0  0  0  0  0
    0.8670   12.1590   -3.3960 C   0  0  0  0  0  0  0  0  0  0  0  0
    0.6280   11.0110   -3.0390 O   0  0  0  0  0  0  0  0  0  0  0  0
    0.8830   12.6160   -4.8590 C   0  0  0  0  0  0  0  0  0  0  0  0
    0.7420   11.6020   -5.8460 O   0  0  0  0  0  0  0  0  0  0  0  0
   -0.4290   10.8940   -5.9160 C   0  0  0  0  0  0  0  0  0  0  0  0
   -0.3680    9.7570   -6.7280 C   0  0  0  0  0  0  0  0  0  0  0  0
   -1.6230   11.2000   -5.2690 C   0  0  0  0  0  0  0  0  0  0  0  0
   -1.4810    8.9330   -6.8930 C   0  0  0  0  0  0  0  0  0  0  0  0
   -2.7430   10.3770   -5.4350 C   0  0  0  0  0  0  0  0  0  0  0  0
   -2.6720    9.2460   -6.2450 C   0  0  0  0  0  0  0  0  0  0  0  0
  1  2  1  0
  2  3  2  0
  2  4  1  0
  3  5  1  0
  4  6  2  0
  3  7  1  0
  5  8  1  0
  6  9  1  0
  7  9  2  0
  6 10  1  0
  8 11  1  0
  9 12  1  0
 10 13  1  0
 12 13  1  0
 11 14  1  0
 14 15  1  0
 15 16  2  0
 15 17  1  0
 17 18  1  0
 18 19  1  0
 19 20  2  0
 19 21  1  0
 20 22  1  0
 21 23  2  0
 22 24  2  0
 23 24  1  0
M  END
