mac-x0115-mac-x0441
     RDKit          3D

 33 36  0  0  0  0  0  0  0  0999 V2000
   -1.4780   17.9930   -5.3390 C   0  0  0  0  0  0  0  0  0  0  0  0
   -0.1960   17.1550   -5.3620 C   0  0  0  0  0  0  0  0  0  0  0  0
    0.8790   17.8610   -4.5560 C   0  0  0  0  0  0  0  0  0  0  0  0
   -0.4300   15.8510   -4.7710 O   0  0  0  0  0  0  0  0  0  0  0  0
    0.5910   14.8210   -4.9760 C   0  0  0  0  0  0  0  0  0  0  0  0
    0.2410   13.4400   -4.2480 C   0  0  1  0  0  0  0  0  0  0  0  0
    1.5530   12.7250   -3.8290 C   0  0  0  0  0  0  0  0  0  0  0  0
   -0.2570   13.7730   -2.7520 N   0  0  0  0  0  0  0  0  0  0  0  0
   -0.1200   12.1530   -5.1670 N   0  0  0  0  0  0  0  0  0  0  0  0
    1.3140   11.5260   -3.2410 O   0  0  0  0  0  0  0  0  0  0  0  0
    2.6840   13.1260   -3.9480 O   0  0  0  0  0  0  0  0  0  0  0  0
    0.7970   14.0620   -1.7780 C   0  0  0  0  0  0  0  0  0  0  0  0
   -1.5020   14.3390   -2.3430 C   0  0  0  0  0  0  0  0  0  0  0  0
    0.9240   11.8150   -6.2500 N   0  0  0  0  0  0  0  0  0  0  0  0
   -1.4220   11.7340   -5.7480 C   0  0  1  0  0  0  0  0  0  0  0  0
    2.4670   14.1300   -1.9710 S   0  0  0  0  0  0  0  0  0  0  0  0
    0.4470   14.3320   -0.4550 N   0  0  0  0  0  0  0  0  0  0  0  0
   -1.9000   14.1970   -0.8850 C   0  0  1  0  0  0  0  0  0  0  0  0
   -2.4760   15.0050   -2.9720 C   0  0  0  0  0  0  0  0  0  0  0  0
    0.2040   11.4510   -7.5350 C   0  0  2  0  0  0  0  0  0  0  0  0
   -1.0910   10.8870   -7.0500 C   0  0  1  0  0  0  0  0  0  0  0  0
   -2.4630   10.9920   -4.9380 C   0  0  0  0  0  0  0  0  0  0  0  0
    0.7980   10.5450   -8.6590 C   0  0  0  0  0  0  0  0  0  0  0  0
   -0.7970   14.6120    0.0650 C   0  0  0  0  0  0  0  0  0  0  0  0
   -3.1890   14.8880   -0.7070 N   0  0  0  0  0  0  0  0  0  0  0  0
   -3.4470   15.2920   -1.9110 C   0  0  0  0  0  0  0  0  0  0  0  0
   -1.2300    9.3830   -6.9780 C   0  0  0  0  0  0  0  0  0  0  0  0
   -2.7190    9.6720   -5.1010 C   0  0  0  0  0  0  0  0  0  0  0  0
   -0.9430   15.1170    1.1720 O   0  0  0  0  0  0  0  0  0  0  0  0
    1.4850    9.4700   -8.2180 F   0  0  0  0  0  0  0  0  0  0  0  0
   -0.1870   10.0720   -9.4450 F   0  0  0  0  0  0  0  0  0  0  0  0
    1.5610   11.2000   -9.5460 F   0  0  0  0  0  0  0  0  0  0  0  0
   -2.0120    8.8400   -6.0490 C   0  0  0  0  0  0  0  0  0  0  0  0
  1  2  1  0
  2  3  1  0
  2  4  1  0
  4  5  1  0
  6  5  1  6
  6  7  1  0
  6  8  1  0
  6  9  1  0
  7 10  1  0
  7 11  2  0
  8 12  1  0
  8 13  1  0
  9 14  1  0
  9 15  1  0
 12 16  2  0
 12 17  1  0
 13 18  1  0
 13 19  2  0
 14 20  1  0
 15 21  1  0
 20 21  1  0
 15 22  1  1
 20 23  1  1
 17 24  1  0
 18 24  1  0
 18 25  1  6
 19 26  1  0
 25 26  2  0
 21 27  1  1
 22 28  2  0
 24 29  2  0
 23 30  1  0
 23 31  1  0
 23 32  1  0
 27 33  2  0
 28 33  1  0
M  END
