mac-x0358-mac-x0441
     RDKit          3D

 24 26  0  0  0  0  0  0  0  0999 V2000
    1.5500   12.9760   -2.4990 O   0  0  0  0  0  0  0  0  0  0  0  0
    0.8260   12.1800   -3.3260 C   0  0  0  0  0  0  0  0  0  0  0  0
    0.4030   11.1170   -2.8920 O   0  0  0  0  0  0  0  0  0  0  0  0
    0.5590   12.6730   -4.7900 C   0  0  2  0  0  0  0  0  0  0  0  0
   -0.6620   13.5830   -4.9500 C   0  0  0  0  0  0  0  0  0  0  0  0
    0.4370   11.5320   -5.7720 N   0  0  0  0  0  0  0  0  0  0  0  0
   -1.9180   12.9600   -4.9850 C   0  0  0  0  0  0  0  0  0  0  0  0
   -0.6410   14.9770   -5.0690 C   0  0  0  0  0  0  0  0  0  0  0  0
    1.2500   11.5860   -6.9940 N   0  0  0  0  0  0  0  0  0  0  0  0
   -0.8900   11.0230   -6.1570 C   0  0  1  0  0  0  0  0  0  0  0  0
   -1.9730   11.6120   -4.8560 O   0  0  0  0  0  0  0  0  0  0  0  0
   -3.1010   13.6600   -5.1430 C   0  0  0  0  0  0  0  0  0  0  0  0
   -1.8350   15.6990   -5.2260 C   0  0  0  0  0  0  0  0  0  0  0  0
    0.7340   10.4500   -7.8070 C   0  0  1  0  0  0  0  0  0  0  0  0
   -0.7660   10.5120   -7.6040 C   0  0  1  0  0  0  0  0  0  0  0  0
   -1.6920   10.1490   -5.2230 C   0  0  0  0  0  0  0  0  0  0  0  0
    1.0250   10.3390   -9.3180 C   0  0  0  0  0  0  0  0  0  0  0  0
   -3.0610   15.0360   -5.2670 C   0  0  0  0  0  0  0  0  0  0  0  0
   -1.5160    9.2280   -7.9060 C   0  0  0  0  0  0  0  0  0  0  0  0
   -2.3020    9.0310   -5.6210 C   0  0  0  0  0  0  0  0  0  0  0  0
    1.7130    9.2000   -9.5550 F   0  0  0  0  0  0  0  0  0  0  0  0
   -0.1200   10.2470  -10.0200 F   0  0  0  0  0  0  0  0  0  0  0  0
    1.6960   11.3400   -9.8870 F   0  0  0  0  0  0  0  0  0  0  0  0
   -2.2190    8.5690   -6.9770 C   0  0  0  0  0  0  0  0  0  0  0  0
  1  2  1  0
  2  3  2  0
  4  2  1  1
  4  5  1  0
  4  6  1  0
  5  7  2  0
  5  8  1  0
  6  9  1  0
  6 10  1  0
  7 11  1  0
  7 12  1  0
  8 13  2  0
  9 14  1  0
 10 15  1  0
 14 15  1  0
 10 16  1  1
 14 17  1  6
 12 18  2  0
 13 18  1  0
 15 19  1  1
 16 20  2  0
 17 21  1  0
 17 22  1  0
 17 23  1  0
 19 24  2  0
 20 24  1  0
M  END
