mac-x0303-mac-x0224
     RDKit          3D

 24 26  0  0  0  0  0  0  0  0999 V2000
   -8.5750   12.8050    2.9960 N   0  0  0  0  0  0  0  0  0  0  0  0
   -8.8830   14.3250    2.3530 S   0  0  0  0  0  0  0  0  0  0  0  0
   -8.7320   15.3370    3.3690 O   0  0  0  0  0  0  0  0  0  0  0  0
  -10.0520   14.2360    1.5140 O   0  0  0  0  0  0  0  0  0  0  0  0
   -7.5700   14.6330    1.2360 C   0  0  0  0  0  0  0  0  0  0  0  0
   -7.7830   14.9380   -0.0740 N   0  0  0  0  0  0  0  0  0  0  0  0
   -6.2880   14.6080    1.5370 N   0  0  0  0  0  0  0  0  0  0  0  0
   -6.5670   15.1280   -0.6570 C   0  0  0  0  0  0  0  0  0  0  0  0
   -5.6430   14.9190    0.3700 C   0  0  0  0  0  0  0  0  0  0  0  0
   -6.2210   15.4540   -1.9590 C   0  0  0  0  0  0  0  0  0  0  0  0
   -4.2920   15.0500    0.0600 C   0  0  0  0  0  0  0  0  0  0  0  0
   -4.8710   15.5780   -2.2250 C   0  0  0  0  0  0  0  0  0  0  0  0
   -3.9320   15.3880   -1.2410 C   0  0  0  0  0  0  0  0  0  0  0  0
   -2.9480   14.8100    1.1480 S   0  0  0  0  0  0  0  0  0  0  0  0
   -2.2440   14.5690   -0.4590 C   0  0  0  0  0  0  0  0  0  0  0  0
   -0.8880   14.4860   -0.7360 C   0  0  0  0  0  0  0  0  0  0  0  0
   -3.1730   14.4690   -1.5110 C   0  0  0  0  0  0  0  0  0  0  0  0
   -0.4930   14.3110   -2.0750 C   0  0  0  0  0  0  0  0  0  0  0  0
   -2.7790   14.3010   -2.8280 C   0  0  0  0  0  0  0  0  0  0  0  0
    0.9230   14.2120   -2.4360 C   0  0  0  0  0  0  0  0  0  0  0  0
   -1.4380   14.2260   -3.1130 C   0  0  0  0  0  0  0  0  0  0  0  0
   -1.1150   14.0660   -4.4330 O   0  0  0  0  0  0  0  0  0  0  0  0
    1.7920   14.4610   -1.6260 O   0  0  0  0  0  0  0  0  0  0  0  0
    1.1590   13.8230   -3.6990 O   0  0  0  0  0  0  0  0  0  0  0  0
  2  1  1  0
  2  3  2  0
  2  4  2  0
  2  5  1  0
  5  6  1  0
  5  7  2  0
  6  8  1  0
  7  9  1  0
  8  9  2  0
  8 10  1  0
  9 11  1  0
 10 12  2  0
 11 13  2  0
 12 13  1  0
 11 14  1  0
 14 15  1  0
 15 16  2  0
 15 17  1  0
 16 18  1  0
 17 19  2  0
 18 20  1  0
 18 21  2  0
 19 21  1  0
 21 22  1  0
 20 23  2  0
 20 24  1  0
M  END
