mac-x0358-mac-x0357
     RDKit          3D

 18 19  0  0  0  0  0  0  0  0999 V2000
    1.2900   12.9630   -1.9200 O   0  0  0  0  0  0  0  0  0  0  0  0
    0.0050   12.6620   -2.3950 C   0  0  0  0  0  0  0  0  0  0  0  0
   -0.5250   11.7810   -1.4490 O   0  0  0  0  0  0  0  0  0  0  0  0
   -0.6800   13.8880   -2.4280 O   0  0  0  0  0  0  0  0  0  0  0  0
    0.1250   11.9620   -3.7290 C   0  0  0  0  0  0  0  0  0  0  0  0
   -0.1840   12.4610   -4.9960 C   0  0  0  0  0  0  0  0  0  0  0  0
    0.5630   10.6810   -3.6810 C   0  0  0  0  0  0  0  0  0  0  0  0
   -0.8080   13.7270   -5.1340 C   0  0  0  0  0  0  0  0  0  0  0  0
    0.7180    9.9330   -4.8050 C   0  0  0  0  0  0  0  0  0  0  0  0
    0.0370   11.6920   -6.1600 C   0  0  0  0  0  0  0  0  0  0  0  0
   -0.2160   12.1680   -7.4150 O   0  0  0  0  0  0  0  0  0  0  0  0
   -2.1190   13.4130   -5.4380 C   0  0  0  0  0  0  0  0  0  0  0  0
   -0.4040   15.0540   -5.0160 C   0  0  0  0  0  0  0  0  0  0  0  0
    0.4860   10.4210   -6.0650 C   0  0  0  0  0  0  0  0  0  0  0  0
   -2.4190   12.0680   -5.5240 O   0  0  0  0  0  0  0  0  0  0  0  0
   -3.0840   14.3590   -5.6410 C   0  0  0  0  0  0  0  0  0  0  0  0
   -1.3860   16.0440   -5.2160 C   0  0  0  0  0  0  0  0  0  0  0  0
   -2.7130   15.6900   -5.5290 C   0  0  0  0  0  0  0  0  0  0  0  0
  2  1  1  0
  2  3  1  0
  2  4  1  0
  2  5  1  0
  5  6  2  0
  5  7  1  0
  6  8  1  0
  7  9  2  0
  6 10  1  0
 10 11  1  0
  8 12  2  0
  8 13  1  0
  9 14  1  0
 10 14  2  0
 12 15  1  0
 12 16  1  0
 13 17  2  0
 16 18  2  0
 17 18  1  0
M  END
