mac-x0347-mac-x0226
     RDKit          3D

 28 31  0  0  0  0  0  0  0  0999 V2000
    1.2610   15.2710   -1.9920 O   0  0  0  0  0  0  0  0  0  0  0  0
    0.5900   14.1900   -2.3060 C   0  0  0  0  0  0  0  0  0  0  0  0
    1.2290   13.0720   -2.3110 N   0  0  0  0  0  0  0  0  0  0  0  0
   -0.8310   14.4770   -2.6020 C   0  0  0  0  0  0  0  0  0  0  0  0
    0.6980   11.8680   -2.6610 C   0  0  0  0  0  0  0  0  0  0  0  0
   -1.7230   14.4830   -1.5360 C   0  0  0  0  0  0  0  0  0  0  0  0
   -1.3360   14.7540   -3.8680 C   0  0  0  0  0  0  0  0  0  0  0  0
    0.3370   10.9730   -1.8840 O   0  0  0  0  0  0  0  0  0  0  0  0
   -3.0780   14.7470   -1.7300 C   0  0  0  0  0  0  0  0  0  0  0  0
   -2.6470   15.0250   -4.1110 N   0  0  0  0  0  0  0  0  0  0  0  0
    0.7140   11.7940   -4.1080 C   0  0  0  0  0  0  0  0  0  0  0  0
   -3.4810   15.0120   -3.0370 C   0  0  0  0  0  0  0  0  0  0  0  0
   -4.0090   14.7310   -0.5990 C   0  0  0  0  0  0  0  0  0  0  0  0
    1.5040   12.6240   -4.9290 C   0  0  0  0  0  0  0  0  0  0  0  0
    0.0540   10.9730   -5.0100 C   0  0  0  0  0  0  0  0  0  0  0  0
   -3.6650   15.3020    0.6380 C   0  0  0  0  0  0  0  0  0  0  0  0
   -5.2700   14.1320   -0.7290 C   0  0  0  0  0  0  0  0  0  0  0  0
    1.3790   12.3610   -6.2170 N   0  0  0  0  0  0  0  0  0  0  0  0
    0.4930   11.3380   -6.2720 N   0  0  0  0  0  0  0  0  0  0  0  0
   -4.5530   15.2740    1.7070 C   0  0  0  0  0  0  0  0  0  0  0  0
   -6.1610   14.1020    0.3410 C   0  0  0  0  0  0  0  0  0  0  0  0
    0.1520   10.7890   -7.5320 C   0  0  0  0  0  0  0  0  0  0  0  0
   -5.8010   14.6740    1.5560 C   0  0  0  0  0  0  0  0  0  0  0  0
   -1.0730   10.1620   -7.7650 C   0  0  0  0  0  0  0  0  0  0  0  0
    1.0910   10.8830   -8.5680 C   0  0  0  0  0  0  0  0  0  0  0  0
   -1.3510    9.6370   -9.0310 C   0  0  0  0  0  0  0  0  0  0  0  0
    0.8110   10.3630   -9.8280 C   0  0  0  0  0  0  0  0  0  0  0  0
   -0.4120    9.7390  -10.0600 C   0  0  0  0  0  0  0  0  0  0  0  0
  1  2  1  0
  2  3  2  3
  2  4  1  0
  3  5  1  0
  4  6  2  0
  4  7  1  0
  5  8  2  0
  6  9  1  0
  7 10  2  0
  5 11  1  0
  9 12  2  0
 10 12  1  0
  9 13  1  0
 11 14  1  0
 11 15  2  0
 13 16  2  0
 13 17  1  0
 14 18  2  0
 15 19  1  0
 18 19  1  0
 16 20  1  0
 17 21  2  0
 19 22  1  0
 20 23  2  0
 21 23  1  0
 22 24  2  0
 22 25  1  0
 24 26  1  0
 25 27  2  0
 26 28  2  0
 27 28  1  0
M  END
