mac-x0588-mac-x0138
     RDKit          3D

 16 18  0  0  0  0  0  0  0  0999 V2000
   -4.5660   15.0940    0.9810 N   0  0  0  0  0  0  0  0  0  0  0  0
   -3.5660   15.4230   -0.0100 C   0  0  1  0  0  0  0  0  0  0  0  0
   -2.2390   14.7030    0.2000 C   0  0  1  0  0  0  0  0  0  0  0  0
   -4.1140   15.0330   -1.2870 N   0  0  0  0  0  0  0  0  0  0  0  0
   -3.1970   15.3340   -2.3860 C   0  0  0  0  0  0  0  0  0  0  0  0
   -1.3240   15.1540   -0.9340 C   0  0  2  0  0  0  0  0  0  0  0  0
   -1.4440   14.9750    1.3910 N   0  0  0  0  0  0  0  0  0  0  0  0
   -1.8890   14.7010   -2.1980 N   0  0  0  0  0  0  0  0  0  0  0  0
   -0.1150   14.4760   -0.5110 N   0  0  0  0  0  0  0  0  0  0  0  0
   -0.0980   14.6130    0.9440 C   0  0  0  0  0  0  0  0  0  0  0  0
   -1.0070   14.9550   -3.3680 C   0  0  0  0  0  0  0  0  0  0  0  0
   -0.5380   16.3920   -3.6990 C   0  0  2  0  0  0  0  0  0  0  0  0
   -1.5700   17.2450   -4.2880 O   0  0  0  0  0  0  0  0  0  0  0  0
    0.6530   16.4220   -4.6510 C   0  0  0  0  0  0  0  0  0  0  0  0
    0.5550   17.8060   -5.2330 C   0  0  0  0  0  0  0  0  0  0  0  0
   -0.9430   18.0400   -5.3080 C   0  0  0  0  0  0  0  0  0  0  0  0
  2  1  1  1
  2  3  1  0
  2  4  1  0
  4  5  1  0
  3  6  1  0
  3  7  1  1
  5  8  1  0
  6  8  1  0
  6  9  1  1
  7 10  1  0
  9 10  1  0
  8 11  1  0
 12 11  1  6
 12 13  1  0
 12 14  1  0
 14 15  1  0
 13 16  1  0
 15 16  1  0
M  END
