mac-x0380-diamond-x0711_0_A
     RDKit          3D

 21 22  0  0  0  0  0  0  0  0999 V2000
   -1.6920   14.5880   -2.1660 O   0  0  0  0  0  0  0  0  0  0  0  0
   -2.9780   14.8010   -2.4890 C   0  0  0  0  0  0  0  0  0  0  0  0
   -3.4520   14.9250   -3.6060 O   0  0  0  0  0  0  0  0  0  0  0  0
   -0.5290   14.0230   -3.1380 S   0  0  0  0  0  0  0  0  0  0  0  0
   -1.4650   12.8910   -4.1440 C   0  0  0  0  0  0  0  0  0  0  0  0
    0.0050   15.0870   -3.9620 O   0  0  0  0  0  0  0  0  0  0  0  0
    0.3520   13.2430   -2.2890 O   0  0  0  0  0  0  0  0  0  0  0  0
   -3.7660   14.8800   -1.2150 C   0  0  0  0  0  0  0  0  0  0  0  0
   -5.1680   14.7570   -1.0120 C   0  0  0  0  0  0  0  0  0  0  0  0
   -3.0040   15.0970   -0.0550 C   0  0  0  0  0  0  0  0  0  0  0  0
   -6.2520   14.4930   -1.9010 C   0  0  0  0  0  0  0  0  0  0  0  0
   -5.7590   14.8610    0.1840 C   0  0  0  0  0  0  0  0  0  0  0  0
   -3.6340   15.1900    1.2000 C   0  0  0  0  0  0  0  0  0  0  0  0
   -6.8730   13.3220   -1.5930 N   0  0  0  0  0  0  0  0  0  0  0  0
   -6.6240   15.2340   -2.7560 O   0  0  0  0  0  0  0  0  0  0  0  0
   -5.0230   15.0770    1.3080 C   0  0  0  0  0  0  0  0  0  0  0  0
   -7.5460   14.6960    0.2030 S   0  0  0  0  0  0  0  0  0  0  0  0
   -5.6690   15.1750    2.5460 N   0  0  0  0  0  0  0  0  0  0  0  0
   -7.6380   13.9010    1.7840 C   0  0  0  0  0  0  0  0  0  0  0  0
   -6.9840   14.8030    2.7720 C   0  0  0  0  0  0  0  0  0  0  0  0
   -7.6070   15.2210    3.7440 O   0  0  0  0  0  0  0  0  0  0  0  0
  1  2  1  0
  2  3  2  0
  4  1  1  0
  4  5  1  0
  4  6  2  0
  4  7  2  0
  2  8  1  0
  8  9  2  0
  8 10  1  0
  9 11  1  0
  9 12  1  0
 10 13  2  0
 11 14  1  0
 11 15  2  0
 12 16  2  0
 13 16  1  0
 12 17  1  0
 16 18  1  0
 17 19  1  0
 18 20  1  0
 19 20  1  0
 20 21  2  0
M  END
