mac-x0123-mac-x0142
     RDKit          3D

 26 31  0  0  0  0  0  0  0  0999 V2000
   -3.9730   15.1290    1.6500 N   0  0  0  0  0  0  0  0  0  0  0  0
   -4.4400   13.9410    0.9560 C   0  0  1  0  0  0  0  0  0  0  0  0
   -5.9800   13.7960    1.0830 C   0  0  2  0  0  0  0  0  0  0  0  0
   -3.9480   14.0350   -0.4380 N   0  0  0  0  0  0  0  0  0  0  0  0
   -4.8820   13.8000   -1.5600 C   0  0  1  0  0  0  0  0  0  0  0  0
   -6.6570   14.5690   -0.0460 C   0  0  1  0  0  0  0  0  0  0  0  0
   -6.7940   14.2640    2.2640 C   0  0  0  0  0  0  0  0  0  0  0  0
   -2.8370   14.9570   -0.8740 C   0  0  1  0  0  0  0  0  0  0  0  0
   -6.3050   14.0330   -1.3390 N   0  0  0  0  0  0  0  0  0  0  0  0
   -8.1360   14.6040    0.3730 C   0  0  0  0  0  0  0  0  0  0  0  0
   -7.9920   14.6990    1.8640 C   0  0  0  0  0  0  0  0  0  0  0  0
   -4.5140   14.7100   -2.6080 N   0  0  0  0  0  0  0  0  0  0  0  0
   -3.6840   15.6990   -1.9230 C   0  0  0  0  0  0  0  0  0  0  0  0
   -2.3750   15.8500    0.2650 C   0  0  0  0  0  0  0  0  0  0  0  0
   -1.3310   14.7330   -1.4240 C   0  0  2  0  0  0  0  0  0  0  0  0
   -1.0500   14.6290   -2.8790 N   0  0  0  0  0  0  0  0  0  0  0  0
   -0.4270   13.9960   -0.5300 N   0  0  0  0  0  0  0  0  0  0  0  0
   -1.5630   15.1430    1.2670 N   0  0  0  0  0  0  0  0  0  0  0  0
   -2.0280   13.9500   -3.7540 C   0  0  0  0  0  0  0  0  0  0  0  0
    0.2910   14.8360   -3.4340 C   0  0  0  0  0  0  0  0  0  0  0  0
   -0.3050   14.5840    0.7910 C   0  0  0  0  0  0  0  0  0  0  0  0
    0.7870   13.6210   -4.1730 C   0  0  0  0  0  0  0  0  0  0  0  0
   -1.5050   12.8740   -4.7260 C   0  0  0  0  0  0  0  0  0  0  0  0
    2.2770   13.3930   -4.3250 C   0  0  0  0  0  0  0  0  0  0  0  0
    1.4940   12.5520   -3.3700 C   0  0  0  0  0  0  0  0  0  0  0  0
   -0.1230   13.1800   -5.2920 C   0  0  0  0  0  0  0  0  0  0  0  0
  2  1  1  1
  2  3  1  0
  2  4  1  0
  4  5  1  0
  3  6  1  0
  3  7  1  1
  4  8  1  0
  5  9  1  1
  6  9  1  0
  6 10  1  1
  7 11  2  0
 10 11  1  0
  5 12  1  0
  8 13  1  6
 12 13  1  0
  8 14  1  0
  8 15  1  0
 15 16  1  6
 15 17  1  0
 14 18  1  0
 16 19  1  0
 16 20  1  0
 17 21  1  0
 18 21  1  0
 22 20  1  0
 19 23  1  0
 22 24  1  0
 22 25  1  0
 24 25  1  0
 22 26  1  0
 23 26  1  0
M  END
