mac-x0361-mac-x0441
     RDKit          3D

 29 31  0  0  0  0  0  0  0  0999 V2000
   -6.2290   14.8350    1.6540 N   0  0  0  0  0  0  0  0  0  0  0  0
   -6.4420   14.7250    0.2970 C   0  0  0  0  0  0  0  0  0  0  0  0
   -7.5830   14.5360   -0.1110 O   0  0  0  0  0  0  0  0  0  0  0  0
   -5.3000   14.8480   -0.6610 C   0  0  0  0  0  0  0  0  0  0  0  0
   -3.9900   14.7590   -0.1800 C   0  0  0  0  0  0  0  0  0  0  0  0
   -5.4960   15.0450   -2.0380 C   0  0  0  0  0  0  0  0  0  0  0  0
   -2.9070   14.8650   -1.0610 C   0  0  0  0  0  0  0  0  0  0  0  0
   -4.4020   15.1490   -2.9130 C   0  0  0  0  0  0  0  0  0  0  0  0
   -3.0970   15.0610   -2.4360 C   0  0  0  0  0  0  0  0  0  0  0  0
   -1.9300   15.1510   -3.1700 O   0  0  0  0  0  0  0  0  0  0  0  0
   -1.8170   14.5970   -4.4920 C   0  0  0  0  0  0  0  0  0  0  0  0
   -0.3630   14.1760   -4.8100 C   0  0  0  0  0  0  0  0  0  0  0  0
   -0.1640   12.6550   -4.6360 C   0  0  2  0  0  0  0  0  0  0  0  0
    0.8980   12.2580   -3.6210 C   0  0  0  0  0  0  0  0  0  0  0  0
   -0.1740   11.8430   -5.8730 N   0  0  0  0  0  0  0  0  0  0  0  0
    0.9550   10.9400   -3.3480 O   0  0  0  0  0  0  0  0  0  0  0  0
    1.6660   12.9880   -3.0220 O   0  0  0  0  0  0  0  0  0  0  0  0
    0.7440   11.8990   -6.9080 N   0  0  0  0  0  0  0  0  0  0  0  0
   -1.1370   10.9250   -6.1090 C   0  0  0  0  0  0  0  0  0  0  0  0
    0.2960   10.9600   -7.8120 C   0  0  0  0  0  0  0  0  0  0  0  0
   -0.8760   10.3540   -7.3230 C   0  0  0  0  0  0  0  0  0  0  0  0
   -2.2770   10.5860   -5.2100 C   0  0  0  0  0  0  0  0  0  0  0  0
    0.8740   10.5310   -9.1560 C   0  0  0  0  0  0  0  0  0  0  0  0
   -1.7210    9.2920   -7.9120 C   0  0  0  0  0  0  0  0  0  0  0  0
   -3.2250    9.5830   -5.8900 C   0  0  0  0  0  0  0  0  0  0  0  0
    1.5600    9.3600   -9.0820 F   0  0  0  0  0  0  0  0  0  0  0  0
   -0.1200   10.3000  -10.0430 F   0  0  0  0  0  0  0  0  0  0  0  0
    1.6670   11.3880   -9.8190 F   0  0  0  0  0  0  0  0  0  0  0  0
   -2.4900    8.5760   -6.7920 C   0  0  0  0  0  0  0  0  0  0  0  0
  1  2  1  0
  2  3  2  0
  2  4  1  0
  4  5  2  0
  4  6  1  0
  5  7  1  0
  6  8  2  0
  7  9  2  0
  8  9  1  0
  9 10  1  0
 10 11  1  0
 11 12  1  0
 13 12  1  6
 13 14  1  0
 13 15  1  0
 14 16  1  0
 14 17  2  0
 15 18  1  0
 15 19  1  0
 18 20  2  0
 19 21  2  0
 20 21  1  0
 19 22  1  0
 20 23  1  0
 21 24  1  0
 22 25  1  0
 23 26  1  0
 23 27  1  0
 23 28  1  0
 24 29  1  0
 25 29  1  0
M  END
