mac-x0451-mac-x0385
     RDKit          3D

 19 21  0  0  0  0  0  0  0  0999 V2000
   -6.8690   14.5800    2.9560 N   0  0  0  0  0  0  0  0  0  0  0  0
   -6.4870   14.6130    1.6720 C   0  0  0  0  0  0  0  0  0  0  0  0
   -5.2810   14.7420    1.3020 N   0  0  0  0  0  0  0  0  0  0  0  0
   -7.5560   14.4930    0.3670 S   0  0  0  0  0  0  0  0  0  0  0  0
   -5.1830   14.7450   -0.0740 C   0  0  0  0  0  0  0  0  0  0  0  0
   -6.2830   14.6250   -0.7830 C   0  0  0  0  0  0  0  0  0  0  0  0
   -4.0670   14.8540   -0.7870 C   0  0  0  0  0  0  0  0  0  0  0  0
   -6.2210   14.6250   -2.2080 C   0  0  0  0  0  0  0  0  0  0  0  0
   -3.9330   14.8650   -2.1260 C   0  0  0  0  0  0  0  0  0  0  0  0
   -4.9820   14.7520   -2.8430 C   0  0  0  0  0  0  0  0  0  0  0  0
   -2.9370   14.9610   -0.1590 C   0  0  0  0  0  0  0  0  0  0  0  0
   -4.7520   14.7680   -4.1500 F   0  0  0  0  0  0  0  0  0  0  0  0
   -2.7310   15.0780    1.1810 C   0  0  0  0  0  0  0  0  0  0  0  0
   -1.9250   14.9390   -1.0470 C   0  0  0  0  0  0  0  0  0  0  0  0
   -3.7090   15.1010    2.1960 N   0  0  0  0  0  0  0  0  0  0  0  0
   -1.5290   15.1860    1.5700 N   0  0  0  0  0  0  0  0  0  0  0  0
   -0.7160   15.0450   -0.7020 N   0  0  0  0  0  0  0  0  0  0  0  0
   -0.6390   15.1740    0.5940 C   0  0  0  0  0  0  0  0  0  0  0  0
    0.6320   15.3410    1.0030 C   0  0  0  0  0  0  0  0  0  0  0  0
  1  2  1  0
  2  3  2  0
  2  4  1  0
  3  5  1  0
  4  6  1  0
  5  6  2  0
  5  7  1  0
  6  8  1  0
  7  9  2  0
  8 10  2  0
  9 10  1  0
  7 11  1  0
 10 12  1  0
 11 13  2  0
 11 14  1  0
 13 15  1  0
 13 16  1  0
 14 17  2  0
 16 18  2  0
 17 18  1  0
 18 19  1  0
M  END
