mac-x0568-mac-x0231
     RDKit          3D

 26 28  0  0  0  0  0  0  0  0999 V2000
   -8.2530   14.5500    1.9310 C   0  0  0  0  0  0  0  0  0  0  0  0
   -7.0980   14.6520    0.9880 C   0  0  0  0  0  0  0  0  0  0  0  0
   -5.7790   14.6830    1.4600 C   0  0  0  0  0  0  0  0  0  0  0  0
   -7.3940   14.7160   -0.3230 N   0  0  0  0  0  0  0  0  0  0  0  0
   -6.3620   14.8090   -1.1850 C   0  0  0  0  0  0  0  0  0  0  0  0
   -4.7230   14.7780    0.5450 C   0  0  0  0  0  0  0  0  0  0  0  0
   -5.0280   14.8400   -0.8210 C   0  0  0  0  0  0  0  0  0  0  0  0
   -4.0540   14.9200   -1.9520 C   0  0  0  0  0  0  0  0  0  0  0  0
   -4.6950   14.8390   -3.1050 N   0  0  0  0  0  0  0  0  0  0  0  0
   -2.7060   15.0230   -1.6640 N   0  0  0  0  0  0  0  0  0  0  0  0
   -4.2310   14.8110   -4.5140 C   0  0  0  0  0  0  0  0  0  0  0  0
   -2.7870   14.6130   -4.5440 C   0  0  0  0  0  0  0  0  0  0  0  0
   -1.9270   15.7070   -4.5720 C   0  0  0  0  0  0  0  0  0  0  0  0
   -2.3100   13.3140   -4.5290 C   0  0  0  0  0  0  0  0  0  0  0  0
   -0.5650   15.4730   -4.5550 C   0  0  0  0  0  0  0  0  0  0  0  0
   -0.9590   13.0870   -4.5130 C   0  0  0  0  0  0  0  0  0  0  0  0
   -0.0900   14.1740   -4.5120 C   0  0  0  0  0  0  0  0  0  0  0  0
    0.3950   16.5810   -4.5660 C   0  0  0  0  0  0  0  0  0  0  0  0
    0.0490   17.7500   -4.7030 O   0  0  0  0  0  0  0  0  0  0  0  0
    1.3450   13.9770   -4.4410 C   0  0  0  0  0  0  0  0  0  0  0  0
    1.6990   16.2110   -4.4140 N   0  0  0  0  0  0  0  0  0  0  0  0
    1.8350   12.5740   -4.3590 C   0  0  0  0  0  0  0  0  0  0  0  0
    2.1880   14.9440   -4.3810 N   0  0  0  0  0  0  0  0  0  0  0  0
    1.2980   11.9780   -3.0830 C   0  0  0  0  0  0  0  0  0  0  0  0
    0.5220   10.8780   -3.2430 O   0  0  0  0  0  0  0  0  0  0  0  0
    1.5150   12.4400   -1.9790 O   0  0  0  0  0  0  0  0  0  0  0  0
  1  2  1  0
  2  3  2  0
  2  4  1  0
  4  5  2  0
  3  6  1  0
  5  7  1  0
  6  7  2  0
  7  8  1  0
  8  9  2  3
  8 10  1  0
  9 11  1  0
 11 12  1  0
 12 13  2  0
 12 14  1  0
 13 15  1  0
 14 16  2  0
 15 17  2  0
 16 17  1  0
 15 18  1  0
 18 19  2  0
 17 20  1  0
 18 21  1  0
 20 22  1  0
 20 23  2  0
 21 23  1  0
 22 24  1  0
 24 25  1  0
 24 26  2  0
M  END
