mac-x0321-mac-x0212
     RDKit          3D

 14 14  0  0  0  0  0  0  0  0999 V2000
   -4.9920   14.9060    1.3940 C   0  0  0  0  0  0  0  0  0  0  0  0
   -6.7010   14.3100    1.4420 S   0  0  0  0  0  0  0  0  0  0  0  0
   -6.5320   12.5650    1.7720 C   0  0  0  0  0  0  0  0  0  0  0  0
   -4.6400   15.0140   -0.0570 C   0  0  0  0  0  0  0  0  0  0  0  0
   -7.3840   14.9170    2.5670 O   0  0  0  0  0  0  0  0  0  0  0  0
   -7.3290   14.4260    0.1330 O   0  0  0  0  0  0  0  0  0  0  0  0
   -3.3530   14.7640   -0.5750 C   0  0  0  0  0  0  0  0  0  0  0  0
   -5.6640   15.3680   -0.9330 C   0  0  0  0  0  0  0  0  0  0  0  0
   -3.1330   14.8680   -1.9600 C   0  0  0  0  0  0  0  0  0  0  0  0
   -5.4420   15.4650   -2.2830 C   0  0  0  0  0  0  0  0  0  0  0  0
   -1.8220   14.6160   -2.6130 C   0  0  0  0  0  0  0  0  0  0  0  0
   -4.1830   15.2180   -2.8070 C   0  0  0  0  0  0  0  0  0  0  0  0
   -0.7900   14.6120   -1.7560 O   0  0  0  0  0  0  0  0  0  0  0  0
   -1.6570   14.4320   -3.8040 O   0  0  0  0  0  0  0  0  0  0  0  0
  2  1  1  0
  2  3  1  0
  1  4  1  0
  2  5  2  0
  2  6  2  0
  4  7  2  0
  4  8  1  0
  7  9  1  0
  8 10  2  0
  9 11  1  0
  9 12  2  0
 10 12  1  0
 11 13  1  0
 11 14  2  0
M  END
