mac-x0282-mac-x0303
     RDKit          3D

 17 19  0  0  0  0  0  0  0  0999 V2000
   -8.2420   12.9120    2.6300 N   0  0  0  0  0  0  0  0  0  0  0  0
   -8.2910   14.4430    1.9120 S   0  0  0  0  0  0  0  0  0  0  0  0
   -7.7640   15.3590    2.8950 O   0  0  0  0  0  0  0  0  0  0  0  0
   -9.6400   14.5850    1.4130 O   0  0  0  0  0  0  0  0  0  0  0  0
   -7.0660   14.1690    0.4460 C   0  0  1  0  0  0  0  0  0  0  0  0
   -6.9660   15.3360   -0.4550 N   0  0  0  0  0  0  0  0  0  0  0  0
   -5.6690   13.7330    0.7160 N   0  0  0  0  0  0  0  0  0  0  0  0
   -4.6890   14.6980    0.1800 C   0  0  2  0  0  0  0  0  0  0  0  0
   -5.5510   15.7450   -0.5670 C   0  0  0  0  0  0  0  0  0  0  0  0
   -3.7710   14.1880   -0.9830 C   0  0  0  0  0  0  0  0  0  0  0  0
   -3.8150   15.1650    1.2570 N   0  0  0  0  0  0  0  0  0  0  0  0
   -2.4090   14.3340   -0.4280 C   0  0  0  0  0  0  0  0  0  0  0  0
   -2.4900   14.8590    0.8470 C   0  0  0  0  0  0  0  0  0  0  0  0
   -1.1870   14.0240   -0.9890 C   0  0  0  0  0  0  0  0  0  0  0  0
   -1.4270   15.0610    1.6070 N   0  0  0  0  0  0  0  0  0  0  0  0
   -0.0580   14.2490   -0.2170 C   0  0  0  0  0  0  0  0  0  0  0  0
   -0.2340   14.7570    1.0590 C   0  0  0  0  0  0  0  0  0  0  0  0
  2  1  1  0
  2  3  2  0
  2  4  2  0
  5  2  1  1
  5  6  1  0
  5  7  1  0
  8  7  1  0
  6  9  1  0
  8  9  1  6
  8 10  1  0
  8 11  1  0
 10 12  1  0
 11 13  1  0
 12 13  2  0
 12 14  1  0
 13 15  1  0
 14 16  2  0
 15 17  2  0
 16 17  1  0
M  END
