mac-x0159-diamond-x0962_1_A
     RDKit          3D

 23 26  0  0  0  0  0  0  0  0999 V2000
   -4.2210   14.6260    0.5150 N   0  0  0  0  0  0  0  0  0  0  0  0
   -3.3580   15.6280   -0.1320 C   0  0  1  0  0  0  0  0  0  0  0  0
   -1.8810   15.3930    0.1860 C   0  0  2  0  0  0  0  0  0  0  0  0
   -3.8750   13.3510   -0.1830 N   0  0  0  0  0  0  0  0  0  0  0  0
   -5.4610   14.8720    0.5640 N   0  0  0  0  0  0  0  0  0  0  0  0
   -3.6890   15.9040   -1.5440 N   0  0  0  0  0  0  0  0  0  0  0  0
   -6.2350   15.2260   -0.5150 C   0  0  0  0  0  0  0  0  0  0  0  0
   -6.3620   14.3070    1.6130 C   0  0  0  0  0  0  0  0  0  0  0  0
   -2.9490   15.0840   -2.4970 C   0  0  0  0  0  0  0  0  0  0  0  0
   -1.2660   14.5600   -0.9170 C   0  0  1  0  0  0  0  0  0  0  0  0
   -1.3870   14.7160    1.3770 N   0  0  0  0  0  0  0  0  0  0  0  0
   -7.6370   14.2420    0.8930 N   0  0  0  0  0  0  0  0  0  0  0  0
   -7.5020   14.8570   -0.3290 C   0  0  0  0  0  0  0  0  0  0  0  0
   -1.5430   15.1390   -2.1950 N   0  0  0  0  0  0  0  0  0  0  0  0
    0.0930   14.6520   -0.4740 N   0  0  0  0  0  0  0  0  0  0  0  0
    0.0100   14.5040    0.9710 C   0  0  0  0  0  0  0  0  0  0  0  0
   -0.6910   14.7540   -3.3330 C   0  0  0  0  0  0  0  0  0  0  0  0
   -0.3050   15.9640   -4.1350 C   0  0  0  0  0  0  0  0  0  0  0  0
    0.9630   16.4890   -4.2820 C   0  0  0  0  0  0  0  0  0  0  0  0
   -1.3030   16.6660   -4.8190 N   0  0  0  0  0  0  0  0  0  0  0  0
   -0.7750   17.6900   -5.4570 C   0  0  0  0  0  0  0  0  0  0  0  0
    0.9150   17.8790   -5.2840 S   0  0  0  0  0  0  0  0  0  0  0  0
   -1.5300   18.6620   -6.2940 C   0  0  0  0  0  0  0  0  0  0  0  0
  2  1  1  6
  2  3  1  0
  1  4  2  0
  1  5  1  0
  2  6  1  0
  5  7  1  0
  5  8  1  0
  6  9  1  0
  3 10  1  0
  3 11  1  1
  8 12  1  0
  7 13  2  0
 12 13  1  0
  9 14  1  0
 10 14  1  0
 10 15  1  1
 11 16  1  0
 15 16  1  0
 14 17  1  0
 17 18  1  0
 18 19  2  0
 18 20  1  0
 20 21  2  0
 19 22  1  0
 21 22  1  0
 21 23  1  0
M  CHG  2   1   1   4  -1
M  END
