mac-x0404-mac-x0568
     RDKit          3D

 26 28  0  0  0  0  0  0  0  0999 V2000
    1.2270   12.9480   -1.9650 O   0  0  0  0  0  0  0  0  0  0  0  0
    1.2100   12.1690   -3.0620 C   0  0  0  0  0  0  0  0  0  0  0  0
    0.5920   11.1150   -3.0370 O   0  0  0  0  0  0  0  0  0  0  0  0
    2.0060   12.7160   -4.2510 C   0  0  0  0  0  0  0  0  0  0  0  0
    1.6550   13.9990   -4.7170 O   0  0  0  0  0  0  0  0  0  0  0  0
    0.3390   14.3240   -4.6780 C   0  0  0  0  0  0  0  0  0  0  0  0
    0.0200   15.6790   -4.9270 C   0  0  0  0  0  0  0  0  0  0  0  0
   -0.6520   13.3980   -4.4050 C   0  0  0  0  0  0  0  0  0  0  0  0
   -1.3100   16.1010   -4.8880 C   0  0  0  0  0  0  0  0  0  0  0  0
   -1.9570   13.7990   -4.3590 C   0  0  0  0  0  0  0  0  0  0  0  0
    1.0080   16.6090   -5.2130 C   0  0  0  0  0  0  0  0  0  0  0  0
   -2.2880   15.1170   -4.5850 C   0  0  0  0  0  0  0  0  0  0  0  0
   -1.5790   17.4710   -5.1510 C   0  0  0  0  0  0  0  0  0  0  0  0
    0.7440   17.9470   -5.4660 C   0  0  0  0  0  0  0  0  0  0  0  0
   -3.7150   15.4130   -4.4870 C   0  0  0  0  0  0  0  0  0  0  0  0
   -0.5650   18.3850   -5.4360 C   0  0  0  0  0  0  0  0  0  0  0  0
   -4.3300   15.2530   -3.1380 N   0  0  0  0  0  0  0  0  0  0  0  0
   -3.9110   15.0810   -1.9010 C   0  0  0  0  0  0  0  0  0  0  0  0
   -2.5820   14.9970   -1.5590 N   0  0  0  0  0  0  0  0  0  0  0  0
   -4.9370   14.9500   -0.8420 C   0  0  0  0  0  0  0  0  0  0  0  0
   -6.2240   14.7640   -1.3090 C   0  0  0  0  0  0  0  0  0  0  0  0
   -4.7240   14.9940    0.5330 C   0  0  0  0  0  0  0  0  0  0  0  0
   -7.3070   14.6130   -0.5210 N   0  0  0  0  0  0  0  0  0  0  0  0
   -5.8410   14.8420    1.3660 C   0  0  0  0  0  0  0  0  0  0  0  0
   -7.1070   14.6530    0.8050 C   0  0  0  0  0  0  0  0  0  0  0  0
   -8.3100   14.4900    1.6820 C   0  0  0  0  0  0  0  0  0  0  0  0
  1  2  1  0
  2  3  2  0
  2  4  1  0
  4  5  1  0
  5  6  1  0
  6  7  2  0
  6  8  1  0
  7  9  1  0
  8 10  2  0
  7 11  1  0
  9 12  2  0
 10 12  1  0
  9 13  1  0
 11 14  2  0
 12 15  1  0
 13 16  2  0
 14 16  1  0
 15 17  1  0
 17 18  2  3
 18 19  1  0
 18 20  1  0
 20 21  2  0
 20 22  1  0
 21 23  1  0
 22 24  2  0
 23 25  2  0
 24 25  1  0
 25 26  1  0
M  END
