mac-x0394-mac-x0159
     RDKit          3D

 24 26  0  0  0  0  0  0  0  0999 V2000
    1.2250   18.2680   -6.0590 Cl  0  0  0  0  0  0  0  0  0  0  0  0
    0.4360   16.9310   -5.3320 C   0  0  0  0  0  0  0  0  0  0  0  0
   -0.9350   16.9030   -5.3530 C   0  0  0  0  0  0  0  0  0  0  0  0
    1.1860   15.9030   -4.7350 C   0  0  0  0  0  0  0  0  0  0  0  0
   -1.7160   18.0100   -6.0350 C   0  0  0  0  0  0  0  0  0  0  0  0
    0.5940   14.8230   -4.0940 C   0  0  0  0  0  0  0  0  0  0  0  0
   -1.5490   15.8210   -4.7160 C   0  0  0  0  0  0  0  0  0  0  0  0
   -3.2720   15.7330   -4.7260 Cl  0  0  0  0  0  0  0  0  0  0  0  0
    1.5390   13.7810   -3.4820 C   0  0  0  0  0  0  0  0  0  0  0  0
   -0.8070   14.8090   -4.0600 C   0  0  0  0  0  0  0  0  0  0  0  0
    0.8980   12.6620   -2.6760 C   0  0  0  0  0  0  0  0  0  0  0  0
   -1.5420   13.7550   -3.3020 C   0  0  0  0  0  0  0  0  0  0  0  0
    0.5350   11.5870   -3.4130 O   0  0  0  0  0  0  0  0  0  0  0  0
    0.7050   12.6680   -1.4630 O   0  0  0  0  0  0  0  0  0  0  0  0
   -1.9810   14.4920   -2.0720 N   0  0  0  0  0  0  0  0  0  0  0  0
   -3.3640   14.9680   -2.1800 C   0  0  0  0  0  0  0  0  0  0  0  0
   -1.6070   14.0500   -0.7210 C   0  0  2  0  0  0  0  0  0  0  0  0
   -4.1150   14.7730   -0.9560 N   0  0  0  0  0  0  0  0  0  0  0  0
   -2.0540   14.9700    0.4080 C   0  0  1  0  0  0  0  0  0  0  0  0
   -0.1870   14.1310   -0.3820 N   0  0  0  0  0  0  0  0  0  0  0  0
   -3.5420   15.3450    0.2310 C   0  0  2  0  0  0  0  0  0  0  0  0
   -1.5750   14.2360    1.5450 N   0  0  0  0  0  0  0  0  0  0  0  0
   -0.1830   14.1470    1.0990 C   0  0  0  0  0  0  0  0  0  0  0  0
   -4.4760   14.9360    1.2630 N   0  0  0  0  0  0  0  0  0  0  0  0
  1  2  1  0
  2  3  2  0
  2  4  1  0
  3  5  1  0
  4  6  2  0
  3  7  1  0
  7  8  1  0
  6  9  1  0
  6 10  1  0
  7 10  2  0
  9 11  1  0
 10 12  1  0
 11 13  1  0
 11 14  2  0
 12 15  1  0
 15 16  1  0
 15 17  1  0
 16 18  1  0
 17 19  1  0
 17 20  1  6
 18 21  1  0
 19 21  1  0
 19 22  1  1
 20 23  1  0
 22 23  1  0
 21 24  1  1
M  END
