mac-x0277-mac-x0396
     RDKit          3D

 24 25  0  0  0  0  0  0  0  0999 V2000
   -1.2990   18.4110   -5.2510 Cl  0  0  0  0  0  0  0  0  0  0  0  0
   -0.6150   16.8490   -4.9780 C   0  0  0  0  0  0  0  0  0  0  0  0
   -1.3790   15.6840   -5.1130 C   0  0  0  0  0  0  0  0  0  0  0  0
    0.7330   16.7840   -4.6180 C   0  0  0  0  0  0  0  0  0  0  0  0
   -2.8450   15.7140   -5.5060 C   0  0  0  0  0  0  0  0  0  0  0  0
   -0.7530   14.4430   -4.8800 C   0  0  0  0  0  0  0  0  0  0  0  0
    1.3390   15.5450   -4.3900 C   0  0  0  0  0  0  0  0  0  0  0  0
   -3.7160   14.8050   -4.6500 C   0  0  0  0  0  0  0  0  0  0  0  0
    0.6040   14.3650   -4.5200 C   0  0  0  0  0  0  0  0  0  0  0  0
    1.2530   13.0220   -4.2770 C   0  0  0  0  0  0  0  0  0  0  0  0
   -3.7030   15.2670   -3.2000 C   0  0  0  0  0  0  0  0  0  0  0  0
    0.9520   12.4470   -2.9120 C   0  0  0  0  0  0  0  0  0  0  0  0
   -3.5120   14.1210   -2.2270 C   0  0  0  0  0  0  0  0  0  0  0  0
    0.4430   11.1970   -2.9710 O   0  0  0  0  0  0  0  0  0  0  0  0
    1.1090   12.9690   -1.8250 O   0  0  0  0  0  0  0  0  0  0  0  0
   -2.9590   14.5870   -0.9660 N   0  0  0  0  0  0  0  0  0  0  0  0
   -3.6620   14.9240    0.0490 C   0  0  0  0  0  0  0  0  0  0  0  0
   -3.1380   15.3320    1.2480 N   0  0  0  0  0  0  0  0  0  0  0  0
   -5.1580   14.8500   -0.0440 C   0  0  0  0  0  0  0  0  0  0  0  0
   -5.8630   15.0420   -1.2250 C   0  0  0  0  0  0  0  0  0  0  0  0
   -5.9010   14.5770    1.0950 C   0  0  0  0  0  0  0  0  0  0  0  0
   -7.2190   14.9700   -1.3140 N   0  0  0  0  0  0  0  0  0  0  0  0
   -7.2840   14.4960    1.0390 C   0  0  0  0  0  0  0  0  0  0  0  0
   -7.8970   14.6980   -0.1790 C   0  0  0  0  0  0  0  0  0  0  0  0
  1  2  1  0
  2  3  2  0
  2  4  1  0
  3  5  1  0
  3  6  1  0
  4  7  2  0
  5  8  1  0
  6  9  2  0
  7  9  1  0
  9 10  1  0
  8 11  1  0
 10 12  1  0
 11 13  1  0
 12 14  1  0
 12 15  2  0
 13 16  1  0
 16 17  2  3
 17 18  1  0
 17 19  1  0
 19 20  2  0
 19 21  1  0
 20 22  1  0
 21 23  2  0
 22 24  2  0
 23 24  1  0
M  END
