mac-x0301-diamond-x0631_0_A
     RDKit          3D

 31 34  0  0  0  0  0  0  0  0999 V2000
    0.4190   14.6740   -2.6440 O   0  0  0  0  0  0  0  0  0  0  0  0
   -0.8370   14.3270   -2.9470 C   0  0  0  0  0  0  0  0  0  0  0  0
   -0.9990   13.7660   -4.0720 N   0  0  0  0  0  0  0  0  0  0  0  0
   -1.7350   14.6820   -1.8610 C   0  0  0  0  0  0  0  0  0  0  0  0
    0.2810   13.6010   -4.7570 C   0  0  0  0  0  0  0  0  0  0  0  0
   -1.2640   14.5760   -0.5720 C   0  0  0  0  0  0  0  0  0  0  0  0
   -3.0510   15.1210   -2.0710 C   0  0  0  0  0  0  0  0  0  0  0  0
    0.0260   12.9550   -6.0970 C   0  0  0  0  0  0  0  0  0  0  0  0
   -2.0540   14.8940    0.5110 C   0  0  0  0  0  0  0  0  0  0  0  0
   -3.8590   15.4460   -0.9600 C   0  0  0  0  0  0  0  0  0  0  0  0
   -0.0260   14.1620   -0.2080 O   0  0  0  0  0  0  0  0  0  0  0  0
    0.6770   11.5950   -6.3030 C   0  0  0  0  0  0  0  0  0  0  0  0
   -3.3600   15.3330    0.3520 C   0  0  0  0  0  0  0  0  0  0  0  0
   -1.3920   14.7250    1.6960 O   0  0  0  0  0  0  0  0  0  0  0  0
   -0.0750   14.4170    1.2060 C   0  0  0  0  0  0  0  0  0  0  0  0
    0.2030   10.8050   -7.4680 N   0  0  0  0  0  0  0  0  0  0  0  0
    0.7910    9.5120   -7.5080 N   0  0  0  0  0  0  0  0  0  0  0  0
    0.6280   11.4170   -8.7050 N   0  0  0  0  0  0  0  0  0  0  0  0
   -0.0450    8.5180   -6.7730 C   0  0  0  0  0  0  0  0  0  0  0  0
    0.6790   10.3480   -9.6830 C   0  0  2  0  0  0  0  0  0  0  0  0
    0.9230    9.1300   -8.9250 N   0  0  0  0  0  0  0  0  0  0  0  0
   -1.3930    8.1420   -7.3920 C   0  0  0  0  0  0  0  0  0  0  0  0
    1.7390   10.6470  -10.6040 N   0  0  0  0  0  0  0  0  0  0  0  0
   -2.4180    9.2690   -7.4090 C   0  0  0  0  0  0  0  0  0  0  0  0
    2.0040    9.6120  -11.5790 C   0  0  2  0  0  0  0  0  0  0  0  0
    2.9720    8.7490  -10.9930 O   0  0  0  0  0  0  0  0  0  0  0  0
    2.5680   10.0800  -12.9550 C   0  0  2  0  0  0  0  0  0  0  0  0
    3.9330    9.6610  -13.1490 O   0  0  0  0  0  0  0  0  0  0  0  0
    2.5610   11.5540  -13.2990 C   0  0  0  0  0  0  0  0  0  0  0  0
    3.5680   11.6270  -14.4390 C   0  0  0  0  0  0  0  0  0  0  0  0
    4.3440   10.3190  -14.3510 C   0  0  0  0  0  0  0  0  0  0  0  0
  1  2  1  0
  2  3  2  3
  2  4  1  0
  3  5  1  0
  4  6  1  0
  4  7  2  0
  5  8  1  0
  6  9  2  0
  7 10  1  0
  6 11  1  0
  8 12  1  0
  9 13  1  0
 10 13  2  0
  9 14  1  0
 11 15  1  0
 14 15  1  0
 12 16  1  0
 16 17  1  0
 16 18  1  0
 17 19  1  0
 18 20  1  0
 17 21  1  0
 20 21  1  0
 19 22  1  0
 20 23  1  6
 22 24  1  0
 23 25  1  0
 25 26  1  1
 25 27  1  0
 27 28  1  0
 27 29  1  1
 29 30  1  0
 28 31  1  0
 30 31  1  0
M  END
