mac-x0496-mac-x0365
     RDKit          3D

 21 22  0  0  0  0  0  0  0  0999 V2000
   -9.6610   17.7020    4.6880 C   0  0  0  0  0  0  0  0  0  0  0  0
   -9.6350   16.7390    3.5710 C   0  0  0  0  0  0  0  0  0  0  0  0
  -10.3370   16.8800    2.4330 N   0  0  0  0  0  0  0  0  0  0  0  0
   -8.8760   15.6190    3.6230 N   0  0  0  0  0  0  0  0  0  0  0  0
  -10.0130   15.7590    1.6910 O   0  0  0  0  0  0  0  0  0  0  0  0
   -9.1340   15.0630    2.4630 C   0  0  0  0  0  0  0  0  0  0  0  0
   -8.5990   13.8120    1.9060 C   0  0  0  0  0  0  0  0  0  0  0  0
   -7.1970   14.0360    1.6170 N   0  0  0  0  0  0  0  0  0  0  0  0
   -6.7880   14.6080    0.4290 C   0  0  0  0  0  0  0  0  0  0  0  0
   -7.5750   14.9760   -0.4370 O   0  0  0  0  0  0  0  0  0  0  0  0
   -5.3300   14.7540    0.2130 C   0  0  0  0  0  0  0  0  0  0  0  0
   -4.5170   14.7950    1.3510 C   0  0  0  0  0  0  0  0  0  0  0  0
   -4.7590   14.8420   -1.0580 C   0  0  0  0  0  0  0  0  0  0  0  0
   -5.5690   14.8150   -2.1460 F   0  0  0  0  0  0  0  0  0  0  0  0
   -3.1420   14.9080    1.2370 C   0  0  0  0  0  0  0  0  0  0  0  0
   -3.3680   14.9520   -1.1880 C   0  0  0  0  0  0  0  0  0  0  0  0
   -2.7190   15.0370   -2.5150 C   0  0  0  0  0  0  0  0  0  0  0  0
   -2.5650   14.9800   -0.0260 C   0  0  0  0  0  0  0  0  0  0  0  0
   -1.4590   14.8540   -2.7690 N   0  0  0  0  0  0  0  0  0  0  0  0
   -3.5490   15.3360   -3.5240 O   0  0  0  0  0  0  0  0  0  0  0  0
   -0.7120   14.5590   -1.6230 O   0  0  0  0  0  0  0  0  0  0  0  0
  1  2  1  0
  2  3  2  0
  2  4  1  0
  3  5  1  0
  4  6  2  0
  5  6  1  0
  6  7  1  0
  7  8  1  0
  8  9  1  0
  9 10  2  0
  9 11  1  0
 11 12  2  0
 11 13  1  0
 13 14  1  0
 12 15  1  0
 13 16  2  0
 16 17  1  0
 15 18  2  0
 16 18  1  0
 17 19  2  3
 17 20  1  0
 19 21  1  0
M  END
