mac-x0567-diamond-x0465_0_A
     RDKit          3D

 25 27  0  0  0  0  0  0  0  0999 V2000
   -0.5390   14.2390   -1.7550 N   0  0  0  0  0  0  0  0  0  0  0  0
   -1.4690   14.5020   -0.8310 C   0  0  0  0  0  0  0  0  0  0  0  0
   -1.2070   14.4230    0.4480 N   0  0  0  0  0  0  0  0  0  0  0  0
   -2.7190   14.8640   -0.9150 C   0  0  0  0  0  0  0  0  0  0  0  0
    0.1150   14.0380    0.7010 C   0  0  0  0  0  0  0  0  0  0  0  0
   -2.2250   14.7230    1.3070 N   0  0  0  0  0  0  0  0  0  0  0  0
   -3.2200   15.0160    0.4230 C   0  0  0  0  0  0  0  0  0  0  0  0
   -3.3430   15.0420   -2.1200 C   0  0  0  0  0  0  0  0  0  0  0  0
    0.7630   13.7730   -0.7300 C   0  0  0  0  0  0  0  0  0  0  0  0
   -4.5460   15.4100    0.5910 C   0  0  0  0  0  0  0  0  0  0  0  0
   -4.6550   15.4290   -1.9230 C   0  0  0  0  0  0  0  0  0  0  0  0
    0.5390   12.3890   -1.2970 N   0  0  0  0  0  0  0  0  0  0  0  0
   -5.2340   15.6080   -0.6360 C   0  0  0  0  0  0  0  0  0  0  0  0
    0.5300   11.9260   -2.5460 C   0  0  0  0  0  0  0  0  0  0  0  0
    0.6960   12.5010   -3.9980 C   0  0  1  0  0  0  0  0  0  0  0  0
    0.3230   10.5800   -2.5590 O   0  0  0  0  0  0  0  0  0  0  0  0
    2.0450   13.2140   -4.1480 C   0  0  0  0  0  0  0  0  0  0  0  0
    0.6510   11.5340   -5.0830 O   0  0  0  0  0  0  0  0  0  0  0  0
   -0.5500   10.9060   -5.3630 C   0  0  0  0  0  0  0  0  0  0  0  0
   -0.6240    9.9940   -6.4400 C   0  0  0  0  0  0  0  0  0  0  0  0
   -1.6930   11.1470   -4.6050 C   0  0  0  0  0  0  0  0  0  0  0  0
    0.4370    9.7230   -7.2110 F   0  0  0  0  0  0  0  0  0  0  0  0
   -1.8140    9.3380   -6.7390 C   0  0  0  0  0  0  0  0  0  0  0  0
   -2.8900   10.4860   -4.9120 C   0  0  0  0  0  0  0  0  0  0  0  0
   -2.9480    9.5820   -5.9760 C   0  0  0  0  0  0  0  0  0  0  0  0
  1  2  1  0
  2  3  1  0
  2  4  2  0
  3  5  1  0
  3  6  1  0
  4  7  1  0
  6  7  2  0
  4  8  1  0
  5  9  1  0
  7 10  1  0
  8 11  2  0
  9 12  1  0
 10 13  2  0
 11 13  1  0
 12 14  2  3
 14 15  1  0
 14 16  1  0
 15 17  1  1
 15 18  1  0
 18 19  1  0
 19 20  2  0
 19 21  1  0
 20 22  1  0
 20 23  1  0
 21 24  2  0
 23 25  2  0
 24 25  1  0
M  END
