mac-x0584-mac-x0590
     RDKit          3D

 22 26  0  0  0  0  0  0  0  0999 V2000
   -3.4660   14.4610   -2.8620 C   0  0  0  0  0  0  0  0  0  0  0  0
   -2.5250   13.2330   -3.1800 C   0  0  0  0  0  0  0  0  0  0  0  0
   -1.9550   12.9230   -4.5920 C   0  0  0  0  0  0  0  0  0  0  0  0
   -3.4410   14.7700   -1.3860 C   0  0  0  0  0  0  0  0  0  0  0  0
   -2.2160   14.9220   -0.7710 C   0  0  0  0  0  0  0  0  0  0  0  0
   -4.3420   14.9640   -0.3820 C   0  0  0  0  0  0  0  0  0  0  0  0
   -0.4500   13.0390   -4.8490 C   0  0  2  0  0  0  0  0  0  0  0  0
   -2.4800   14.9940    0.6620 C   0  0  0  0  0  0  0  0  0  0  0  0
   -1.0120   15.0280   -1.2670 C   0  0  0  0  0  0  0  0  0  0  0  0
   -3.7630   15.1230    0.8960 N   0  0  0  0  0  0  0  0  0  0  0  0
    0.2290   11.9240   -5.6240 C   0  0  0  0  0  0  0  0  0  0  0  0
    0.5530   13.3810   -3.7280 C   0  0  1  0  0  0  0  0  0  0  0  0
   -0.8690   15.0060   -2.6490 N   0  0  0  0  0  0  0  0  0  0  0  0
   -0.0090   15.1670   -0.3590 N   0  0  0  0  0  0  0  0  0  0  0  0
   -1.4450   14.9450    1.5470 N   0  0  0  0  0  0  0  0  0  0  0  0
    1.9230   13.0130   -4.3600 C   0  0  0  0  0  0  0  0  0  0  0  0
    0.4000   14.8680   -3.3770 C   0  0  2  0  0  0  0  0  0  0  0  0
   -1.8600   15.7520   -3.4620 C   0  0  0  0  0  0  0  0  0  0  0  0
   -0.2780   15.0390    0.9760 C   0  0  0  0  0  0  0  0  0  0  0  0
    1.5840   12.5730   -5.7790 C   0  0  0  0  0  0  0  0  0  0  0  0
    0.1840   15.7580   -4.6320 C   0  0  0  0  0  0  0  0  0  0  0  0
   -1.3190   15.7440   -4.8740 C   0  0  0  0  0  0  0  0  0  0  0  0
  1  2  1  0
  2  3  1  0
  1  4  1  0
  4  5  1  0
  4  6  2  0
  7  3  1  1
  5  8  1  0
  5  9  2  0
  6 10  1  0
  8 10  2  0
  7 11  1  0
  7 12  1  0
  9 13  1  0
  9 14  1  0
  8 15  1  0
 12 16  1  6
 12 17  1  0
 13 17  1  0
 13 18  1  0
 14 19  1  0
 15 19  2  0
 11 20  1  0
 16 20  1  0
 17 21  1  6
 18 22  1  0
 21 22  1  0
M  END
