mac-x0190-mac-x0357
     RDKit          3D

 24 26  0  0  0  0  0  0  0  0999 V2000
   -9.2480   15.2520    2.3830 O   0  0  0  0  0  0  0  0  0  0  0  0
   -8.8700   14.1510    1.5610 C   0  0  0  0  0  0  0  0  0  0  0  0
   -7.5640   14.4580    0.9260 C   0  0  0  0  0  0  0  0  0  0  0  0
   -7.4740   14.7940   -0.3950 N   0  0  0  0  0  0  0  0  0  0  0  0
   -6.3700   14.4550    1.4880 N   0  0  0  0  0  0  0  0  0  0  0  0
   -6.1650   15.0090   -0.6970 C   0  0  0  0  0  0  0  0  0  0  0  0
   -5.4810   14.7920    0.4900 C   0  0  0  0  0  0  0  0  0  0  0  0
   -5.5510   15.3650   -1.8830 C   0  0  0  0  0  0  0  0  0  0  0  0
   -4.0760   14.9320    0.5110 C   0  0  0  0  0  0  0  0  0  0  0  0
   -4.1680   15.4980   -1.8540 C   0  0  0  0  0  0  0  0  0  0  0  0
   -3.4240   15.2880   -0.6970 C   0  0  0  0  0  0  0  0  0  0  0  0
   -1.9350   15.4440   -0.8150 C   0  0  0  0  0  0  0  0  0  0  0  0
   -1.4010   14.8380   -2.1260 C   0  0  0  0  0  0  0  0  0  0  0  0
   -0.1860   14.1080   -1.8280 N   0  0  0  0  0  0  0  0  0  0  0  0
    0.4460   13.2070   -2.4880 C   0  0  0  0  0  0  0  0  0  0  0  0
    1.5620   12.6560   -2.0060 O   0  0  0  0  0  0  0  0  0  0  0  0
    0.1540   12.5950   -3.8170 C   0  0  0  0  0  0  0  0  0  0  0  0
    1.1480   12.5090   -4.8200 C   0  0  0  0  0  0  0  0  0  0  0  0
   -1.1390   12.0840   -4.0580 C   0  0  0  0  0  0  0  0  0  0  0  0
    2.5350   13.0460   -4.5870 C   0  0  0  0  0  0  0  0  0  0  0  0
   -1.4460   11.4880   -5.2850 C   0  0  0  0  0  0  0  0  0  0  0  0
    0.8050   11.9000   -6.0350 C   0  0  0  0  0  0  0  0  0  0  0  0
    1.6900   11.7520   -7.0580 O   0  0  0  0  0  0  0  0  0  0  0  0
   -0.4700   11.3960   -6.2730 C   0  0  0  0  0  0  0  0  0  0  0  0
  1  2  1  0
  2  3  1  0
  3  4  1  0
  3  5  2  0
  4  6  1  0
  5  7  1  0
  6  7  2  0
  6  8  1  0
  7  9  1  0
  8 10  2  0
  9 11  2  0
 10 11  1  0
 11 12  1  0
 12 13  1  0
 13 14  1  0
 14 15  2  3
 15 16  1  0
 15 17  1  0
 17 18  2  0
 17 19  1  0
 18 20  1  0
 19 21  2  0
 18 22  1  0
 22 23  1  0
 21 24  1  0
 22 24  2  0
M  END
