mac-x0567-diamond-x0253_0_A
     RDKit          3D

 26 28  0  0  0  0  0  0  0  0999 V2000
   -0.5230   14.2960   -1.7210 N   0  0  0  0  0  0  0  0  0  0  0  0
   -1.4670   14.5460   -0.8050 C   0  0  0  0  0  0  0  0  0  0  0  0
   -1.1970   14.4690    0.4690 N   0  0  0  0  0  0  0  0  0  0  0  0
   -2.7240   14.8880   -0.8890 C   0  0  0  0  0  0  0  0  0  0  0  0
    0.1380   14.1040    0.7080 C   0  0  0  0  0  0  0  0  0  0  0  0
   -2.2190   14.7490    1.3350 N   0  0  0  0  0  0  0  0  0  0  0  0
   -3.2200   15.0280    0.4550 C   0  0  0  0  0  0  0  0  0  0  0  0
   -3.3480   15.0570   -2.0910 C   0  0  0  0  0  0  0  0  0  0  0  0
    0.7710   13.8330   -0.7300 C   0  0  0  0  0  0  0  0  0  0  0  0
   -4.5560   15.4020    0.6190 C   0  0  0  0  0  0  0  0  0  0  0  0
   -4.6670   15.4230   -1.8970 C   0  0  0  0  0  0  0  0  0  0  0  0
    0.4930   12.4450   -1.2540 N   0  0  0  0  0  0  0  0  0  0  0  0
   -5.2470   15.5900   -0.6070 C   0  0  0  0  0  0  0  0  0  0  0  0
    0.6030   11.9820   -2.4980 C   0  0  0  0  0  0  0  0  0  0  0  0
    0.2770   10.6660   -2.5620 O   0  0  0  0  0  0  0  0  0  0  0  0
    1.0100   12.5580   -3.8910 C   0  0  0  0  0  0  0  0  0  0  0  0
    0.3640   11.9350   -5.0800 N   0  0  0  0  0  0  0  0  0  0  0  0
    1.0540   11.7340   -6.2910 C   0  0  0  0  0  0  0  0  0  0  0  0
    2.1320   12.2650   -6.4990 O   0  0  0  0  0  0  0  0  0  0  0  0
    0.4350   10.8010   -7.3180 C   0  0  0  0  0  0  0  0  0  0  0  0
   -0.5590    9.8810   -6.9610 C   0  0  0  0  0  0  0  0  0  0  0  0
    0.8460   10.8290   -8.6680 C   0  0  0  0  0  0  0  0  0  0  0  0
   -1.1270    9.0190   -7.9160 C   0  0  0  0  0  0  0  0  0  0  0  0
    0.2880    9.9790   -9.6190 C   0  0  0  0  0  0  0  0  0  0  0  0
   -2.1900    8.0410   -7.5170 C   0  0  0  0  0  0  0  0  0  0  0  0
   -0.6960    9.0750   -9.2470 C   0  0  0  0  0  0  0  0  0  0  0  0
  1  2  1  0
  2  3  1  0
  2  4  2  0
  3  5  1  0
  3  6  1  0
  4  7  1  0
  6  7  2  0
  4  8  1  0
  5  9  1  0
  7 10  1  0
  8 11  2  0
  9 12  1  0
 10 13  2  0
 11 13  1  0
 12 14  2  3
 14 15  1  0
 14 16  1  0
 16 17  1  0
 17 18  1  0
 18 19  2  0
 18 20  1  0
 20 21  2  0
 20 22  1  0
 21 23  1  0
 22 24  2  0
 23 25  1  0
 23 26  2  0
 24 26  1  0
M  END
