mac-x0137-mac-x0271
     RDKit          3D

 23 26  0  0  0  0  0  0  0  0999 V2000
   -2.8270   12.6990   -4.2940 F   0  0  0  0  0  0  0  0  0  0  0  0
   -1.7200   13.4310   -4.5970 C   0  0  2  0  0  0  0  0  0  0  0  0
   -0.5560   12.4680   -4.8520 C   0  0  0  0  0  0  0  0  0  0  0  0
   -1.4480   14.3910   -3.4350 C   0  0  0  0  0  0  0  0  0  0  0  0
   -1.0720   13.5760   -2.2670 N   0  0  0  0  0  0  0  0  0  0  0  0
    0.1600   11.9750   -3.5800 C   0  0  0  0  0  0  0  0  0  0  0  0
    0.2620   13.0090   -2.4570 C   0  0  0  0  0  0  0  0  0  0  0  0
   -1.2690   14.1490   -1.0050 C   0  0  0  0  0  0  0  0  0  0  0  0
   -0.2040   14.3090   -0.2180 N   0  0  0  0  0  0  0  0  0  0  0  0
   -2.5210   14.5410   -0.5690 C   0  0  0  0  0  0  0  0  0  0  0  0
   -0.4140   14.8490    0.9910 C   0  0  0  0  0  0  0  0  0  0  0  0
   -2.6280   15.1220    0.6690 C   0  0  0  0  0  0  0  0  0  0  0  0
   -3.8670   14.4570   -1.2000 C   0  0  2  0  0  0  0  0  0  0  0  0
   -3.9250   15.3100   -2.3510 O   0  0  0  0  0  0  0  0  0  0  0  0
   -1.5870   15.2710    1.4870 N   0  0  0  0  0  0  0  0  0  0  0  0
   -3.9590   15.5580    0.9700 N   0  0  0  0  0  0  0  0  0  0  0  0
   -4.8600   14.9230   -0.0310 C   0  0  2  0  0  0  0  0  0  0  0  0
   -5.5980   13.9400    0.8870 C   0  0  0  0  0  0  0  0  0  0  0  0
   -5.9070   15.7970   -0.7740 C   0  0  0  0  0  0  0  0  0  0  0  0
   -6.9390   13.9290    1.1100 C   0  0  0  0  0  0  0  0  0  0  0  0
   -7.3410   15.4960   -0.6120 O   0  0  0  0  0  0  0  0  0  0  0  0
   -7.8560   14.8620    0.4580 C   0  0  0  0  0  0  0  0  0  0  0  0
   -9.0080   15.0320    0.8600 O   0  0  0  0  0  0  0  0  0  0  0  0
  2  1  1  1
  2  3  1  0
  2  4  1  0
  4  5  1  0
  3  6  1  0
  5  7  1  0
  6  7  1  0
  5  8  1  0
  8  9  2  0
  8 10  1  0
  9 11  1  0
 10 12  2  0
 10 13  1  0
 13 14  1  6
 11 15  2  0
 12 15  1  0
 12 16  1  0
 13 17  1  0
 16 17  1  0
 17 18  1  1
 17 19  1  0
 18 20  2  0
 19 21  1  0
 20 22  1  0
 21 22  1  0
 22 23  2  0
M  END
