mac-x0564-diamond-x0933_0_A
     RDKit          3D

 15 17  0  0  0  0  0  0  0  0999 V2000
    0.7310   14.0890   -1.0470 O   0  0  0  0  0  0  0  0  0  0  0  0
   -0.0330   14.2590   -1.9850 C   0  0  0  0  0  0  0  0  0  0  0  0
    0.3920   14.2010   -3.3140 N   0  0  0  0  0  0  0  0  0  0  0  0
   -1.4470   14.5260   -1.8500 C   0  0  0  0  0  0  0  0  0  0  0  0
   -2.2970   14.6490   -2.9100 C   0  0  0  0  0  0  0  0  0  0  0  0
   -0.4760   14.3320   -4.2650 C   0  0  0  0  0  0  0  0  0  0  0  0
   -2.1260   14.6880   -0.6680 O   0  0  0  0  0  0  0  0  0  0  0  0
   -1.8350   14.5270   -4.1710 N   0  0  0  0  0  0  0  0  0  0  0  0
   -3.4470   14.9150   -1.0070 C   0  0  0  0  0  0  0  0  0  0  0  0
   -3.5810   14.8950   -2.4030 C   0  0  0  0  0  0  0  0  0  0  0  0
   -4.8370   15.0990   -2.9680 C   0  0  0  0  0  0  0  0  0  0  0  0
   -4.5380   15.1370   -0.1230 C   0  0  0  0  0  0  0  0  0  0  0  0
   -4.4760   15.1670    1.2890 N   0  0  0  0  0  0  0  0  0  0  0  0
   -5.9260   15.3220   -2.1270 C   0  0  0  0  0  0  0  0  0  0  0  0
   -5.7740   15.3380   -0.7450 C   0  0  0  0  0  0  0  0  0  0  0  0
  1  2  2  0
  2  3  1  0
  2  4  1  0
  4  5  2  0
  3  6  2  0
  4  7  1  0
  5  8  1  0
  6  8  1  0
  7  9  1  0
  5 10  1  0
  9 10  2  0
 10 11  1  0
  9 12  1  0
 12 13  1  0
 11 14  2  0
 12 15  2  0
 14 15  1  0
M  END
