mac-x0360-mac-x0284
     RDKit          3D

 22 23  0  0  0  0  0  0  0  0999 V2000
   -8.0910   10.8890    1.5570 Cl  0  0  0  0  0  0  0  0  0  0  0  0
   -6.8480   11.4760    0.5280 C   0  0  0  0  0  0  0  0  0  0  0  0
   -6.4210   10.7220   -0.5630 C   0  0  0  0  0  0  0  0  0  0  0  0
   -6.2840   12.7060    0.7990 C   0  0  0  0  0  0  0  0  0  0  0  0
   -5.2820   13.1900   -0.0290 C   0  0  0  0  0  0  0  0  0  0  0  0
   -5.4070   11.2130   -1.3870 C   0  0  0  0  0  0  0  0  0  0  0  0
   -4.8820   10.2610   -2.7220 Cl  0  0  0  0  0  0  0  0  0  0  0  0
   -4.6120   14.7720    0.3570 S   0  0  1  0  0  0  0  0  0  0  0  0
   -4.8240   12.4530   -1.1310 C   0  0  0  0  0  0  0  0  0  0  0  0
   -4.8240   15.7550   -0.9740 N   0  0  0  0  0  0  0  0  0  0  0  0
   -5.4410   15.4140    1.3050 O   0  0  0  0  0  0  0  0  0  0  0  0
   -3.1270   14.7230    0.3180 N   0  0  0  0  0  0  0  0  0  0  0  0
   -2.6540   14.7550   -1.0320 C   0  0  0  0  0  0  0  0  0  0  0  0
   -1.3430   14.4990   -1.2740 C   0  0  0  0  0  0  0  0  0  0  0  0
   -3.5480   15.0430   -2.0720 C   0  0  0  0  0  0  0  0  0  0  0  0
   -0.8790   14.5230   -2.5760 C   0  0  0  0  0  0  0  0  0  0  0  0
   -3.0990   15.0730   -3.3850 C   0  0  0  0  0  0  0  0  0  0  0  0
    0.5480   14.2340   -2.7520 C   0  0  0  0  0  0  0  0  0  0  0  0
   -1.7540   14.8090   -3.6400 C   0  0  0  0  0  0  0  0  0  0  0  0
   -1.3050   14.8340   -4.9270 O   0  0  0  0  0  0  0  0  0  0  0  0
    1.4250   14.3720   -1.9270 O   0  0  0  0  0  0  0  0  0  0  0  0
    0.8110   13.7560   -3.9760 O   0  0  0  0  0  0  0  0  0  0  0  0
  1  2  1  0
  2  3  2  0
  2  4  1  0
  4  5  2  0
  3  6  1  0
  6  7  1  0
  5  8  1  0
  5  9  1  0
  6  9  2  0
  8 10  1  6
  8 11  2  0
  8 12  2  0
 12 13  1  0
 13 14  2  0
 13 15  1  0
 14 16  1  0
 15 17  2  0
 16 18  1  0
 16 19  2  0
 17 19  1  0
 19 20  1  0
 18 21  2  0
 18 22  1  0
M  END
