mac-x0527-mac-x0345
     RDKit          3D

 18 19  0  0  0  0  0  0  0  0999 V2000
   -3.7080   15.1000   -3.8150 O   0  0  0  0  0  0  0  0  0  0  0  0
   -3.1130   15.0030   -2.7430 C   0  0  0  0  0  0  0  0  0  0  0  0
   -1.7900   14.6130   -2.6620 N   0  0  0  0  0  0  0  0  0  0  0  0
   -3.8120   15.3290   -1.4070 C   0  0  1  0  0  0  0  0  0  0  0  0
   -0.9420   14.6700   -3.8320 C   0  0  0  0  0  0  0  0  0  0  0  0
   -5.3250   15.0040   -1.4800 C   0  0  0  0  0  0  0  0  0  0  0  0
   -3.0470   14.7920   -0.2420 N   0  0  0  0  0  0  0  0  0  0  0  0
   -0.8940   13.3330   -4.5380 C   0  0  0  0  0  0  0  0  0  0  0  0
   -6.0280   15.0520   -0.1940 N   0  0  0  0  0  0  0  0  0  0  0  0
   -3.8200   14.9640    1.0090 C   0  0  0  0  0  0  0  0  0  0  0  0
   -7.4100   14.5680   -0.2060 C   0  0  0  0  0  0  0  0  0  0  0  0
   -1.8320   12.3300   -4.2350 C   0  0  0  0  0  0  0  0  0  0  0  0
    0.0890   13.0770   -5.5030 C   0  0  0  0  0  0  0  0  0  0  0  0
   -5.2500   14.4050    0.8460 C   0  0  1  0  0  0  0  0  0  0  0  0
   -6.3000   14.6410    2.4580 Br  0  0  0  0  0  0  0  0  0  0  0  0
   -1.7820   11.0960   -4.8870 C   0  0  0  0  0  0  0  0  0  0  0  0
    0.1350   11.8430   -6.1530 C   0  0  0  0  0  0  0  0  0  0  0  0
   -0.8000   10.8540   -5.8460 C   0  0  0  0  0  0  0  0  0  0  0  0
  1  2  2  0
  2  3  1  0
  4  2  1  6
  3  5  1  0
  4  6  1  0
  4  7  1  0
  5  8  1  0
  6  9  1  0
  7 10  1  0
  9 11  1  0
  8 12  2  0
  8 13  1  0
  9 14  1  0
 10 14  1  0
 14 15  1  1
 12 16  1  0
 13 17  2  0
 16 18  2  0
 17 18  1  0
M  END
