mac-x0328-mac-x0305
     RDKit          3D

 13 13  0  0  0  0  0  0  0  0999 V2000
   -1.7500   15.3140   -3.7650 O   0  0  0  0  0  0  0  0  0  0  0  0
   -1.8880   14.4280   -2.6500 C   0  0  1  0  0  0  0  0  0  0  0  0
   -0.5700   14.3810   -1.8560 C   0  0  0  0  0  0  0  0  0  0  0  0
   -3.1980   14.7000   -1.9310 C   0  0  0  0  0  0  0  0  0  0  0  0
   -0.6330   13.6030   -0.7380 O   0  0  0  0  0  0  0  0  0  0  0  0
    0.4880   14.9090   -2.1300 O   0  0  0  0  0  0  0  0  0  0  0  0
   -3.3580   14.7620   -0.5220 C   0  0  0  0  0  0  0  0  0  0  0  0
   -4.3320   14.8940   -2.7380 C   0  0  0  0  0  0  0  0  0  0  0  0
   -2.2690   14.5850    0.3200 O   0  0  0  0  0  0  0  0  0  0  0  0
   -4.6330   14.9960    0.0250 C   0  0  0  0  0  0  0  0  0  0  0  0
   -5.5860   15.1250   -2.1960 C   0  0  0  0  0  0  0  0  0  0  0  0
   -5.7310   15.1690   -0.8250 C   0  0  0  0  0  0  0  0  0  0  0  0
   -6.9660   15.3780   -0.2950 O   0  0  0  0  0  0  0  0  0  0  0  0
  2  1  1  6
  2  3  1  0
  2  4  1  0
  3  5  1  0
  3  6  2  0
  4  7  2  0
  4  8  1  0
  7  9  1  0
  7 10  1  0
  8 11  2  0
 10 12  2  0
 11 12  1  0
 12 13  1  0
M  END
