mac-x0182-mac-x0132
     RDKit          3D

 25 28  0  0  0  0  0  0  0  0999 V2000
    1.7030   11.8980   -6.9070 O   0  0  0  0  0  0  0  0  0  0  0  0
    0.7450   11.6210   -6.2270 C   0  0  0  0  0  0  0  0  0  0  0  0
    0.4500   12.1930   -5.0140 N   0  0  0  0  0  0  0  0  0  0  0  0
   -0.2470   10.5840   -6.5990 C   0  0  0  0  0  0  0  0  0  0  0  0
   -0.7240   11.3080   -4.1930 S   0  0  2  0  0  0  0  0  0  0  0  0
   -1.1320   10.3070   -5.5640 C   0  0  0  0  0  0  0  0  0  0  0  0
   -0.3440    9.9200   -7.8150 C   0  0  0  0  0  0  0  0  0  0  0  0
   -1.8210   12.3440   -3.8690 N   0  0  0  0  0  0  0  0  0  0  0  0
    0.0090   10.5010   -3.2470 O   0  0  0  0  0  0  0  0  0  0  0  0
   -2.1430    9.3680   -5.6830 C   0  0  0  0  0  0  0  0  0  0  0  0
   -1.3600    8.9650   -7.9620 C   0  0  0  0  0  0  0  0  0  0  0  0
   -1.7290   13.7850   -4.2420 C   0  0  0  0  0  0  0  0  0  0  0  0
   -2.2490    8.6930   -6.9040 C   0  0  0  0  0  0  0  0  0  0  0  0
   -1.9900   14.8530   -3.1330 C   0  0  0  0  0  0  0  0  0  0  0  0
   -3.3530   14.8340   -2.4530 C   0  0  0  0  0  0  0  0  0  0  0  0
   -4.4970   14.6860   -3.2270 C   0  0  0  0  0  0  0  0  0  0  0  0
   -3.5200   14.9510   -1.0580 C   0  0  0  0  0  0  0  0  0  0  0  0
   -4.8180   14.8950   -0.4700 C   0  0  0  0  0  0  0  0  0  0  0  0
   -5.7620   14.6350   -2.6360 C   0  0  0  0  0  0  0  0  0  0  0  0
   -5.0850   14.9920    0.8930 C   0  0  0  0  0  0  0  0  0  0  0  0
   -5.9470   14.7260   -1.2710 C   0  0  0  0  0  0  0  0  0  0  0  0
   -4.0410   15.1960    1.7910 N   0  0  0  0  0  0  0  0  0  0  0  0
   -7.1920   14.6440   -0.7810 N   0  0  0  0  0  0  0  0  0  0  0  0
   -6.3230   14.9010    1.4160 N   0  0  0  0  0  0  0  0  0  0  0  0
   -7.3170   14.7250    0.5440 C   0  0  0  0  0  0  0  0  0  0  0  0
  1  2  2  0
  2  3  1  0
  2  4  1  0
  5  3  1  6
  4  6  2  0
  5  6  1  0
  4  7  1  0
  5  8  2  0
  5  9  2  0
  6 10  1  0
  7 11  2  0
  8 12  1  0
 10 13  2  0
 11 13  1  0
 12 14  1  0
 14 15  1  0
 15 16  2  0
 15 17  1  0
 17 18  2  0
 16 19  1  0
 18 20  1  0
 18 21  1  0
 19 21  2  0
 20 22  1  0
 21 23  1  0
 20 24  2  0
 23 25  2  0
 24 25  1  0
M  END
