mac-x0231-diamond-x0685_1_A
     RDKit          3D

 24 26  0  0  0  0  0  0  0  0999 V2000
    0.5940   10.5910   -3.0450 O   0  0  0  0  0  0  0  0  0  0  0  0
    0.6510   11.9980   -3.1380 C   0  0  0  0  0  0  0  0  0  0  0  0
    1.2140   12.4650   -1.9300 O   0  0  0  0  0  0  0  0  0  0  0  0
    1.4420   12.5090   -4.3590 C   0  0  0  0  0  0  0  0  0  0  0  0
   -0.8200   12.4250   -3.1870 C   0  0  0  0  0  0  0  0  0  0  0  0
   -1.6590   11.7680   -4.2990 C   0  0  0  0  0  0  0  0  0  0  0  0
    1.0740   13.9710   -4.5300 C   0  0  0  0  0  0  0  0  0  0  0  0
   -1.2300   10.4410   -4.7350 N   0  0  0  0  0  0  0  0  0  0  0  0
   -0.3100   14.3470   -4.9120 C   0  0  0  0  0  0  0  0  0  0  0  0
    2.0030   14.8440   -4.2770 N   0  0  0  0  0  0  0  0  0  0  0  0
   -0.6400   15.6920   -4.8830 C   0  0  0  0  0  0  0  0  0  0  0  0
    1.6670   16.1560   -4.3830 N   0  0  0  0  0  0  0  0  0  0  0  0
   -1.2830   13.4170   -5.2820 C   0  0  0  0  0  0  0  0  0  0  0  0
   -0.7750   10.2170   -6.1150 C   0  0  0  0  0  0  0  0  0  0  0  0
    0.3990   16.6650   -4.5170 C   0  0  0  0  0  0  0  0  0  0  0  0
   -1.9400   16.1220   -5.2000 C   0  0  0  0  0  0  0  0  0  0  0  0
   -2.5810   13.8350   -5.6030 C   0  0  0  0  0  0  0  0  0  0  0  0
   -0.5470    8.7430   -6.4730 C   0  0  0  0  0  0  0  0  0  0  0  0
   -1.6450   10.9180   -7.1830 C   0  0  0  0  0  0  0  0  0  0  0  0
    0.1410   17.8520   -4.3610 O   0  0  0  0  0  0  0  0  0  0  0  0
   -2.9110   15.1840   -5.5570 C   0  0  0  0  0  0  0  0  0  0  0  0
    0.1100    8.6210   -7.8410 C   0  0  0  0  0  0  0  0  0  0  0  0
   -1.0670   10.7340   -8.5900 C   0  0  0  0  0  0  0  0  0  0  0  0
   -0.7630    9.2700   -8.9120 C   0  0  0  0  0  0  0  0  0  0  0  0
  2  1  1  0
  2  3  1  0
  2  4  1  0
  2  5  1  0
  5  6  1  0
  4  7  1  0
  6  8  1  0
  7  9  1  0
  7 10  2  0
  9 11  2  0
 10 12  1  0
  9 13  1  0
  8 14  1  0
 11 15  1  0
 12 15  1  0
 11 16  1  0
 13 17  2  0
 14 18  1  0
 14 19  1  0
 15 20  2  0
 16 21  2  0
 17 21  1  0
 18 22  1  0
 19 23  1  0
 22 24  1  0
 23 24  1  0
M  END
