mac-x0397-diamond-x0895_0_A
     RDKit          3D

 13 14  0  0  0  0  0  0  0  0999 V2000
   -6.0240   15.0890   -2.6170 Cl  0  0  0  0  0  0  0  0  0  0  0  0
   -4.4830   14.9270   -1.9030 C   0  0  0  0  0  0  0  0  0  0  0  0
   -4.4380   14.8910   -0.5330 C   0  0  0  0  0  0  0  0  0  0  0  0
   -3.3110   14.8290   -2.6300 C   0  0  0  0  0  0  0  0  0  0  0  0
   -5.5240   14.9830    0.2810 N   0  0  0  0  0  0  0  0  0  0  0  0
   -3.2000   14.7470    0.1630 C   0  0  0  0  0  0  0  0  0  0  0  0
   -2.0850   14.6850   -1.9640 C   0  0  0  0  0  0  0  0  0  0  0  0
   -6.6930   15.1090   -0.1060 O   0  0  0  0  0  0  0  0  0  0  0  0
   -5.2700   14.9260    1.7480 C   0  0  0  0  0  0  0  0  0  0  0  0
   -3.5830   14.7470    1.8300 S   0  0  0  0  0  0  0  0  0  0  0  0
   -2.0060   14.6400   -0.5560 C   0  0  0  0  0  0  0  0  0  0  0  0
   -6.2970   15.0100    2.8380 N   0  0  0  0  0  0  0  0  0  0  0  0
   -4.4350   14.8670    0.4670 O   0  0  0  0  0  0  0  0  0  0  0  0
  1  2  1  0
  2  3  2  0
  2  4  1  0
  3  5  1  0
  3  6  1  0
  4  7  2  0
  5  8  1  0
  5  9  2  0
  6 10  1  0
  9 10  1  0
  6 11  2  0
  7 11  1  0
  9 12  1  0
 10 13  2  0
M  CHG  2   5   1   8  -1
M  END
