mac-x0347-diamond-x0962_2_B
     RDKit          3D

 23 25  0  0  0  0  0  0  0  0999 V2000
    1.2570   14.6680   -3.5000 O   0  0  0  0  0  0  0  0  0  0  0  0
    0.5010   14.2050   -2.4860 C   0  0  0  0  0  0  0  0  0  0  0  0
    0.9560   13.5490   -1.5680 O   0  0  0  0  0  0  0  0  0  0  0  0
   -0.9260   14.5620   -2.5910 C   0  0  0  0  0  0  0  0  0  0  0  0
   -1.8250   14.4370   -1.5240 C   0  0  0  0  0  0  0  0  0  0  0  0
   -1.4050   15.0400   -3.8070 C   0  0  0  0  0  0  0  0  0  0  0  0
   -3.1740   14.7860   -1.6980 C   0  0  0  0  0  0  0  0  0  0  0  0
   -2.6970   15.3900   -4.0150 N   0  0  0  0  0  0  0  0  0  0  0  0
   -3.5410   15.2540   -2.9630 C   0  0  0  0  0  0  0  0  0  0  0  0
   -4.1660   14.6520   -0.6260 C   0  0  0  0  0  0  0  0  0  0  0  0
   -4.1500   15.3220    0.6150 C   0  0  0  0  0  0  0  0  0  0  0  0
   -5.2120   13.7690   -0.8720 C   0  0  0  0  0  0  0  0  0  0  0  0
   -5.1750   15.0790    1.5700 C   0  0  0  0  0  0  0  0  0  0  0  0
   -6.2080   13.5310    0.0560 C   0  0  0  0  0  0  0  0  0  0  0  0
   -6.2270   14.1590    1.2900 C   0  0  0  0  0  0  0  0  0  0  0  0
   -7.4020   13.7390    2.1900 C   0  0  0  0  0  0  0  0  0  0  0  0
   -7.9840   14.7960    3.0670 C   0  0  0  0  0  0  0  0  0  0  0  0
   -8.9890   15.7310    2.8630 C   0  0  0  0  0  0  0  0  0  0  0  0
   -7.5010   14.9310    4.3460 N   0  0  0  0  0  0  0  0  0  0  0  0
   -9.8000   15.9920    1.7330 C   0  0  0  0  0  0  0  0  0  0  0  0
   -9.0850   16.4290    4.0370 N   0  0  0  0  0  0  0  0  0  0  0  0
   -8.1650   15.9070    4.8980 C   0  0  0  0  0  0  0  0  0  0  0  0
  -10.4850   16.2280    0.8290 N   0  0  0  0  0  0  0  0  0  0  0  0
  1  2  1  0
  2  3  2  0
  2  4  1  0
  4  5  2  0
  4  6  1  0
  5  7  1  0
  6  8  2  0
  7  9  2  0
  8  9  1  0
  7 10  1  0
 10 11  2  0
 10 12  1  0
 11 13  1  0
 12 14  2  0
 13 15  2  0
 14 15  1  0
 15 16  1  0
 16 17  1  0
 17 18  2  0
 17 19  1  0
 18 20  1  0
 18 21  1  0
 19 22  2  0
 21 22  1  0
 20 23  3  0
M  END
