mac-x0379-diamond-x1015_0_A
     RDKit          3D

 22 25  0  0  0  0  0  0  0  0999 V2000
   -5.3440   15.2560    0.3620 C   0  0  0  0  0  0  0  0  0  0  0  0
   -4.4940   15.1910   -0.8310 C   0  0  0  0  0  0  0  0  0  0  0  0
   -4.8880   15.4420   -2.0590 N   0  0  0  0  0  0  0  0  0  0  0  0
   -2.8770   14.7330   -0.6220 S   0  0  0  0  0  0  0  0  0  0  0  0
   -3.8270   15.2440   -2.9190 C   0  0  0  0  0  0  0  0  0  0  0  0
   -2.6710   14.8400   -2.3090 C   0  0  0  0  0  0  0  0  0  0  0  0
   -1.4310   14.4790   -2.8430 C   0  0  0  0  0  0  0  0  0  0  0  0
   -1.1810   14.3270   -4.1100 N   0  0  0  0  0  0  0  0  0  0  0  0
   -0.5160   14.1490   -1.8840 N   0  0  0  0  0  0  0  0  0  0  0  0
    0.1160   13.6590   -4.0610 C   0  0  1  0  0  0  0  0  0  0  0  0
    0.3210   13.5900   -2.6070 C   0  0  0  0  0  0  0  0  0  0  0  0
    0.2370   12.2190   -4.1070 N   0  0  0  0  0  0  0  0  0  0  0  0
    1.3600   12.8830   -2.3110 N   0  0  0  0  0  0  0  0  0  0  0  0
    0.7260   11.7750   -2.8320 C   0  0  0  0  0  0  0  0  0  0  0  0
   -0.2890   11.4200   -5.1460 C   0  0  0  0  0  0  0  0  0  0  0  0
    0.6060   10.6800   -2.2640 O   0  0  0  0  0  0  0  0  0  0  0  0
    0.1760   11.5690   -6.4540 C   0  0  0  0  0  0  0  0  0  0  0  0
   -1.2830   10.4560   -4.9000 C   0  0  0  0  0  0  0  0  0  0  0  0
   -0.3280   10.7820   -7.4910 C   0  0  0  0  0  0  0  0  0  0  0  0
   -1.7930    9.6640   -5.9360 C   0  0  0  0  0  0  0  0  0  0  0  0
   -1.3090    9.8320   -7.2310 C   0  0  0  0  0  0  0  0  0  0  0  0
   -1.9210    8.8670   -8.5130 Cl  0  0  0  0  0  0  0  0  0  0  0  0
  1  2  1  0
  2  3  2  0
  2  4  1  0
  3  5  1  0
  4  6  1  0
  5  6  2  0
  6  7  1  0
  7  8  2  0
  7  9  1  0
 10  8  1  1
  9 11  2  0
 10 11  1  0
 10 12  1  0
 11 13  1  0
 12 14  1  0
 13 14  1  0
 12 15  1  0
 14 16  2  0
 15 17  2  0
 15 18  1  0
 17 19  1  0
 18 20  2  0
 19 21  2  0
 20 21  1  0
 21 22  1  0
M  END
