mac-x0451-mac-x0161
     RDKit          3D

 23 26  0  0  0  0  0  0  0  0999 V2000
   -6.2890   14.6040    2.9970 N   0  0  0  0  0  0  0  0  0  0  0  0
   -5.4270   14.7190    1.9660 C   0  0  0  0  0  0  0  0  0  0  0  0
   -5.8470   14.9630    0.7670 N   0  0  0  0  0  0  0  0  0  0  0  0
   -3.7110   14.5710    2.0880 S   0  0  0  0  0  0  0  0  0  0  0  0
   -4.7770   15.0450   -0.0920 C   0  0  0  0  0  0  0  0  0  0  0  0
   -3.5320   14.8620    0.4220 C   0  0  0  0  0  0  0  0  0  0  0  0
   -5.0360   15.3150   -1.4960 C   0  0  2  0  0  0  0  0  0  0  0  0
   -2.2300   14.9160   -0.3660 C   0  0  1  0  0  0  0  0  0  0  0  0
   -6.2600   14.5930   -1.6830 N   0  0  0  0  0  0  0  0  0  0  0  0
   -3.8870   14.8430   -2.4040 C   0  0  0  0  0  0  0  0  0  0  0  0
   -2.5210   15.3590   -1.8780 C   0  0  2  0  0  0  0  0  0  0  0  0
   -1.3200   15.7950    0.4390 N   0  0  0  0  0  0  0  0  0  0  0  0
   -1.3920   13.6520   -0.4080 C   0  0  0  0  0  0  0  0  0  0  0  0
   -1.4300   14.9940   -2.7920 O   0  0  0  0  0  0  0  0  0  0  0  0
   -0.0230   14.1660   -0.4050 N   0  0  0  0  0  0  0  0  0  0  0  0
   -0.1390   15.0100    0.7530 C   0  0  0  0  0  0  0  0  0  0  0  0
   -1.0990   13.7350   -3.2150 C   0  0  0  0  0  0  0  0  0  0  0  0
   -1.5540   12.9230   -4.2430 C   0  0  0  0  0  0  0  0  0  0  0  0
   -0.1120   13.0540   -2.5480 O   0  0  0  0  0  0  0  0  0  0  0  0
    0.0870   11.8030   -3.1230 N   0  0  0  0  0  0  0  0  0  0  0  0
   -0.7810   11.7450   -4.1320 C   0  0  0  0  0  0  0  0  0  0  0  0
   -0.8530   10.6370   -4.9180 O   0  0  0  0  0  0  0  0  0  0  0  0
   -1.8460   10.6700   -5.9360 C   0  0  0  0  0  0  0  0  0  0  0  0
  1  2  1  0
  2  3  2  0
  2  4  1  0
  3  5  1  0
  4  6  1  0
  5  6  2  0
  5  7  1  0
  6  8  1  0
  7  9  1  6
  7 10  1  0
  8 11  1  0
 10 11  1  0
  8 12  1  0
  8 13  1  6
 11 14  1  6
 13 15  1  0
 12 16  1  0
 15 16  1  0
 14 17  1  0
 17 18  2  0
 17 19  1  0
 19 20  1  0
 18 21  1  0
 20 21  2  0
 21 22  1  0
 22 23  1  0
M  END
