mac-x0385-mac-x0590
     RDKit          3D

 21 23  0  0  0  0  0  0  0  0999 V2000
   -4.4990   15.7310   -1.3330 C   0  0  0  0  0  0  0  0  0  0  0  0
   -3.8380   14.4100   -0.9510 C   0  0  1  0  0  0  0  0  0  0  0  0
   -2.5630   14.1330   -1.8520 C   0  0  1  0  0  0  0  0  0  0  0  0
   -3.6090   14.2450    0.5960 C   0  0  2  0  0  0  0  0  0  0  0  0
   -4.4340   15.1750    1.3620 N   0  0  0  0  0  0  0  0  0  0  0  0
   -2.4810   14.7560   -3.2740 C   0  0  0  0  0  0  0  0  0  0  0  0
   -2.2250   14.4300    0.9940 N   0  0  0  0  0  0  0  0  0  0  0  0
   -1.3530   14.5190   -1.1720 N   0  0  0  0  0  0  0  0  0  0  0  0
   -1.9850   13.7170   -4.3090 C   0  0  0  0  0  0  0  0  0  0  0  0
   -1.8280   15.7630    0.6100 C   0  0  0  0  0  0  0  0  0  0  0  0
   -1.4040   13.7380    0.0670 C   0  0  1  0  0  0  0  0  0  0  0  0
   -0.1720   13.9810   -1.7900 N   0  0  0  0  0  0  0  0  0  0  0  0
   -0.3230   15.9530    0.5770 C   0  0  0  0  0  0  0  0  0  0  0  0
   -0.5040   13.8190   -4.7180 C   0  0  0  0  0  0  0  0  0  0  0  0
    0.0320   13.6070    0.3890 C   0  0  0  0  0  0  0  0  0  0  0  0
    0.7000   13.7670   -0.7610 C   0  0  0  0  0  0  0  0  0  0  0  0
    0.2690   12.5020   -4.8890 C   0  0  2  0  0  0  0  0  0  0  0  0
    0.6790   11.8800   -3.5520 C   0  0  0  0  0  0  0  0  0  0  0  0
    1.6010   12.6690   -5.5930 C   0  0  0  0  0  0  0  0  0  0  0  0
    2.5680   12.9140   -4.4520 C   0  0  0  0  0  0  0  0  0  0  0  0
    2.0550   12.2220   -3.3100 O   0  0  0  0  0  0  0  0  0  0  0  0
  2  1  1  1
  2  3  1  0
  2  4  1  0
  4  5  1  1
  3  6  1  6
  4  7  1  0
  3  8  1  0
  6  9  1  0
  7 10  1  0
  7 11  1  0
  8 11  1  0
  8 12  1  0
 10 13  1  0
  9 14  1  0
 11 15  1  1
 12 16  1  0
 15 16  2  0
 17 14  1  1
 17 18  1  0
 17 19  1  0
 19 20  1  0
 18 21  1  0
 20 21  1  0
M  END
