mac-x0385-diamond-x0837_0_A
     RDKit          3D

 16 17  0  0  0  0  0  0  0  0999 V2000
   -4.7970   15.7880   -1.3350 C   0  0  0  0  0  0  0  0  0  0  0  0
   -3.4500   15.5990   -0.7480 C   0  0  0  0  0  0  0  0  0  0  0  0
   -2.3350   15.9800   -1.4410 C   0  0  0  0  0  0  0  0  0  0  0  0
   -3.2140   15.0330    0.4700 C   0  0  0  0  0  0  0  0  0  0  0  0
   -1.9870   14.8740    0.9730 N   0  0  0  0  0  0  0  0  0  0  0  0
   -1.0900   15.8330   -0.9910 N   0  0  0  0  0  0  0  0  0  0  0  0
   -4.3440   14.5140    1.2730 C   0  0  1  0  0  0  0  0  0  0  0  0
   -0.9840   15.2820    0.2130 C   0  0  0  0  0  0  0  0  0  0  0  0
   -5.5960   15.1960    1.1250 N   0  0  0  0  0  0  0  0  0  0  0  0
   -4.5150   13.1430    0.7010 C   0  0  0  0  0  0  0  0  0  0  0  0
    0.3520   15.0870    0.7500 C   0  0  0  0  0  0  0  0  0  0  0  0
   -4.8820   13.1910   -0.7970 C   0  0  2  0  0  0  0  0  0  0  0  0
   -6.5490   14.7490    0.2480 C   0  0  0  0  0  0  0  0  0  0  0  0
   -7.7520   14.8290    0.4930 O   0  0  0  0  0  0  0  0  0  0  0  0
   -3.2640   13.5130   -2.1990 I   0  0  0  0  0  0  0  0  0  0  0  0
   -6.0540   14.1310   -1.0260 C   0  0  0  0  0  0  0  0  0  0  0  0
  1  2  1  0
  2  3  2  0
  2  4  1  0
  4  5  2  0
  3  6  1  0
  7  4  1  6
  5  8  1  0
  6  8  2  0
  7  9  1  0
  7 10  1  0
  8 11  1  0
 10 12  1  0
  9 13  1  0
 13 14  2  0
 12 15  1  6
 12 16  1  0
 13 16  1  0
M  END
