mac-x0206-mac-x0204
     RDKit          3D

 21 22  0  0  0  0  0  0  0  0999 V2000
   -2.7820   15.5780   -0.0820 N   0  0  0  0  0  0  0  0  0  0  0  0
   -3.8730   15.4310   -0.8950 C   0  0  0  0  0  0  0  0  0  0  0  0
   -3.8120   15.5500   -2.1950 N   0  0  0  0  0  0  0  0  0  0  0  0
   -5.1760   15.1240   -0.1640 C   0  0  0  0  0  0  0  0  0  0  0  0
   -2.4940   15.8760   -2.8380 C   0  0  0  0  0  0  0  0  0  0  0  0
   -6.4230   14.8940   -0.7830 C   0  0  0  0  0  0  0  0  0  0  0  0
   -5.1100   15.0730    1.2430 C   0  0  0  0  0  0  0  0  0  0  0  0
   -6.5530   14.9290   -2.1390 O   0  0  0  0  0  0  0  0  0  0  0  0
   -7.5660   14.6220   -0.0120 C   0  0  0  0  0  0  0  0  0  0  0  0
   -6.2580   14.8030    1.9990 C   0  0  0  0  0  0  0  0  0  0  0  0
   -2.1420   14.8550   -3.8780 C   0  0  0  0  0  0  0  0  0  0  0  0
   -7.4810   14.5770    1.3780 C   0  0  0  0  0  0  0  0  0  0  0  0
   -1.0850   13.9400   -3.7140 C   0  0  0  0  0  0  0  0  0  0  0  0
   -2.8820   14.7900   -5.0620 C   0  0  0  0  0  0  0  0  0  0  0  0
   -0.1400   13.8520   -2.5780 C   0  0  0  0  0  0  0  0  0  0  0  0
   -3.8840   15.6800   -5.2950 O   0  0  0  0  0  0  0  0  0  0  0  0
   -2.5960   13.8190   -5.9990 C   0  0  0  0  0  0  0  0  0  0  0  0
   -0.8820   13.0060   -4.7160 C   0  0  0  0  0  0  0  0  0  0  0  0
    0.1420   12.6150   -2.1460 O   0  0  0  0  0  0  0  0  0  0  0  0
    0.3720   14.8540   -2.0950 O   0  0  0  0  0  0  0  0  0  0  0  0
   -1.6180   12.9160   -5.8480 N   0  0  0  0  0  0  0  0  0  0  0  0
  1  2  1  0
  2  3  2  3
  2  4  1  0
  3  5  1  0
  4  6  2  0
  4  7  1  0
  6  8  1  0
  6  9  1  0
  7 10  2  0
  5 11  1  0
  9 12  2  0
 10 12  1  0
 11 13  2  0
 11 14  1  0
 13 15  1  0
 14 16  1  0
 14 17  2  0
 13 18  1  0
 15 19  1  0
 15 20  2  0
 17 21  1  0
 18 21  2  0
M  END
