mac-x0472-mac-x0277
     RDKit          3D

 26 28  0  0  0  0  0  0  0  0999 V2000
   -4.5560   15.5790   -2.2110 O   0  0  0  0  0  0  0  0  0  0  0  0
   -3.5330   14.7340   -2.7750 S   0  0  1  0  0  0  0  0  0  0  0  0
   -2.9180   14.9030   -4.2080 N   0  0  0  0  0  0  0  0  0  0  0  0
   -2.2980   14.8270   -1.6270 N   0  0  0  0  0  0  0  0  0  0  0  0
   -4.1290   13.0510   -2.4750 C   0  0  0  0  0  0  0  0  0  0  0  0
   -2.6450   14.8300   -0.3130 C   0  0  0  0  0  0  0  0  0  0  0  0
   -3.3580   11.9340   -2.8400 C   0  0  0  0  0  0  0  0  0  0  0  0
   -5.3750   12.8670   -1.8600 C   0  0  0  0  0  0  0  0  0  0  0  0
   -1.4730   15.2370   -4.4130 C   0  0  0  0  0  0  0  0  0  0  0  0
   -1.9470   14.4070    0.7210 N   0  0  0  0  0  0  0  0  0  0  0  0
   -4.1940   15.4570    0.1530 S   0  0  0  0  0  0  0  0  0  0  0  0
   -3.8460   10.6450   -2.5870 C   0  0  0  0  0  0  0  0  0  0  0  0
   -5.8530   11.5760   -1.6130 C   0  0  0  0  0  0  0  0  0  0  0  0
   -0.6360   14.1570   -4.1980 C   0  0  0  0  0  0  0  0  0  0  0  0
   -0.8720   16.4820   -4.7890 C   0  0  0  0  0  0  0  0  0  0  0  0
   -1.7190   17.9460   -5.1350 Cl  0  0  0  0  0  0  0  0  0  0  0  0
   -3.7910   15.0920    1.7680 C   0  0  0  0  0  0  0  0  0  0  0  0
   -2.6060   14.5550    1.9200 N   0  0  0  0  0  0  0  0  0  0  0  0
   -5.0890   10.4700   -1.9780 C   0  0  0  0  0  0  0  0  0  0  0  0
    0.7470   14.2510   -4.3230 C   0  0  0  0  0  0  0  0  0  0  0  0
    0.5220   16.5770   -4.9040 C   0  0  0  0  0  0  0  0  0  0  0  0
    1.5690   13.0250   -4.0690 C   0  0  0  0  0  0  0  0  0  0  0  0
    1.3180   15.4660   -4.6670 C   0  0  0  0  0  0  0  0  0  0  0  0
    1.0720   12.3160   -2.8430 C   0  0  0  0  0  0  0  0  0  0  0  0
    0.4070   11.1760   -3.1300 O   0  0  0  0  0  0  0  0  0  0  0  0
    1.2010   12.6770   -1.6940 O   0  0  0  0  0  0  0  0  0  0  0  0
  1  2  2  0
  2  3  2  0
  2  4  1  1
  2  5  1  0
  4  6  1  0
  5  7  2  0
  5  8  1  0
  3  9  1  0
  6 10  2  0
  6 11  1  0
  7 12  1  0
  8 13  2  0
  9 14  2  0
  9 15  1  0
 15 16  1  0
 11 17  1  0
 10 18  1  0
 17 18  2  0
 12 19  2  0
 13 19  1  0
 14 20  1  0
 15 21  2  0
 20 22  1  0
 20 23  2  0
 21 23  1  0
 22 24  1  0
 24 25  1  0
 24 26  2  0
M  END
