mac-x1493-mac-x0212
     RDKit          3D

 19 20  0  0  0  0  0  0  0  0999 V2000
   -2.4420   13.8280   -0.0780 O   0  0  0  0  0  0  0  0  0  0  0  0
   -3.0400   14.2430   -1.2120 C   0  0  0  0  0  0  0  0  0  0  0  0
   -2.4400   14.3350   -2.3570 N   0  0  0  0  0  0  0  0  0  0  0  0
   -4.4570   14.6100   -1.1120 C   0  0  0  0  0  0  0  0  0  0  0  0
   -1.0980   13.9510   -2.2730 O   0  0  0  0  0  0  0  0  0  0  0  0
   -5.3370   14.4710   -0.0120 C   0  0  0  0  0  0  0  0  0  0  0  0
   -4.9690   15.1590   -2.2650 C   0  0  0  0  0  0  0  0  0  0  0  0
   -5.0120   13.9060    1.2800 N   0  0  0  0  0  0  0  0  0  0  0  0
   -6.6860   14.9090   -0.1500 C   0  0  0  0  0  0  0  0  0  0  0  0
   -6.2430   15.5660   -2.4040 N   0  0  0  0  0  0  0  0  0  0  0  0
   -6.4300   13.2440    1.9580 S   0  0  0  0  0  0  0  0  0  0  0  0
   -7.0790   15.4520   -1.3750 C   0  0  0  0  0  0  0  0  0  0  0  0
   -7.6640   14.8320    0.8770 C   0  0  0  0  0  0  0  0  0  0  0  0
   -5.9280   11.8320    2.8580 C   0  0  0  0  0  0  0  0  0  0  0  0
   -7.0310   14.2050    2.8660 O   0  0  0  0  0  0  0  0  0  0  0  0
   -7.1680   12.7250    0.8230 O   0  0  0  0  0  0  0  0  0  0  0  0
   -8.3890   15.8900   -1.5260 C   0  0  0  0  0  0  0  0  0  0  0  0
   -8.9660   15.2730    0.7040 C   0  0  0  0  0  0  0  0  0  0  0  0
   -9.3330   15.8080   -0.5080 C   0  0  0  0  0  0  0  0  0  0  0  0
  1  2  1  0
  2  3  2  3
  2  4  1  0
  3  5  1  0
  4  6  2  0
  4  7  1  0
  6  8  1  0
  6  9  1  0
  7 10  2  0
 11  8  1  0
  9 12  2  0
 10 12  1  0
  9 13  1  0
 11 14  1  0
 11 15  2  0
 11 16  2  0
 12 17  1  0
 13 18  2  0
 17 19  2  0
 18 19  1  0
M  END
