mac-x0255-mac-x0567
     RDKit          3D

 25 28  0  0  0  0  0  0  0  0999 V2000
    2.0660   12.4440   -2.1960 O   0  0  0  0  0  0  0  0  0  0  0  0
    0.8580   12.2620   -2.8920 C   0  0  0  0  0  0  0  0  0  0  0  0
    0.4760   10.8950   -2.7710 O   0  0  0  0  0  0  0  0  0  0  0  0
    1.0740   12.7120   -4.3410 C   0  0  0  0  0  0  0  0  0  0  0  0
   -0.1320   13.0820   -2.0950 C   0  0  0  0  0  0  0  0  0  0  0  0
    0.5430   14.1590   -1.2610 C   0  0  0  0  0  0  0  0  0  0  0  0
    0.5020   14.0620   -4.6330 C   0  0  0  0  0  0  0  0  0  0  0  0
    0.1390   13.9890    0.1070 N   0  0  0  0  0  0  0  0  0  0  0  0
    1.1130   15.2830   -4.7690 C   0  0  0  0  0  0  0  0  0  0  0  0
   -1.1900   14.1840   -4.8420 S   0  0  0  0  0  0  0  0  0  0  0  0
    0.1960   16.3390   -5.0620 C   0  0  0  0  0  0  0  0  0  0  0  0
   -1.1170   15.8690   -5.1290 C   0  0  0  0  0  0  0  0  0  0  0  0
   -1.1100   14.3510    0.4700 C   0  0  0  0  0  0  0  0  0  0  0  0
    0.4230   17.7090   -5.2830 C   0  0  0  0  0  0  0  0  0  0  0  0
   -2.1990   16.7190   -5.4090 C   0  0  0  0  0  0  0  0  0  0  0  0
   -1.5580   14.4330    1.7460 N   0  0  0  0  0  0  0  0  0  0  0  0
   -2.2040   14.7120   -0.2830 C   0  0  0  0  0  0  0  0  0  0  0  0
   -0.6470   18.5520   -5.5670 C   0  0  0  0  0  0  0  0  0  0  0  0
   -1.9360   18.0680   -5.6290 C   0  0  0  0  0  0  0  0  0  0  0  0
   -2.8420   14.8170    1.8750 N   0  0  0  0  0  0  0  0  0  0  0  0
   -3.2730   15.0030    0.6260 C   0  0  0  0  0  0  0  0  0  0  0  0
   -2.2700   14.7880   -1.6790 C   0  0  0  0  0  0  0  0  0  0  0  0
   -4.5320   15.4110    0.1620 C   0  0  0  0  0  0  0  0  0  0  0  0
   -3.5440   15.1980   -2.1200 C   0  0  0  0  0  0  0  0  0  0  0  0
   -4.6280   15.4980   -1.2450 C   0  0  0  0  0  0  0  0  0  0  0  0
  2  1  1  0
  2  3  1  0
  2  4  1  0
  2  5  1  0
  5  6  1  0
  4  7  1  0
  6  8  1  0
  7  9  2  0
  7 10  1  0
  9 11  1  0
 10 12  1  0
 11 12  2  0
  8 13  1  0
 11 14  1  0
 12 15  1  0
 13 16  1  0
 13 17  2  0
 14 18  2  0
 15 19  2  0
 18 19  1  0
 16 20  1  0
 17 21  1  0
 20 21  2  0
 17 22  1  0
 21 23  1  0
 22 24  2  0
 23 25  2  0
 24 25  1  0
M  END
