mac-x0570-mac-x0343
     RDKit          3D

 39 42  0  0  0  0  0  0  0  0999 V2000
    4.5130   37.4550   -3.8830 C   0  0  0  0  0  0  0  0  0  0  0  0
    5.2370   38.0920   -2.6900 C   0  0  0  0  0  0  0  0  0  0  0  0
    5.5070   39.5630   -3.0880 C   0  0  0  0  0  0  0  0  0  0  0  0
    6.5930   37.3350   -2.5960 C   0  0  0  0  0  0  0  0  0  0  0  0
    4.4090   37.9530   -1.3940 C   0  0  0  0  0  0  0  0  0  0  0  0
    4.5360   38.8290   -0.3260 C   0  0  0  0  0  0  0  0  0  0  0  0
    3.4850   36.9290   -1.2270 C   0  0  0  0  0  0  0  0  0  0  0  0
    7.2760   37.3700   -1.2360 C   0  0  0  0  0  0  0  0  0  0  0  0
    3.7900   38.6910    0.8530 C   0  0  0  0  0  0  0  0  0  0  0  0
    2.7220   36.7730   -0.0360 C   0  0  0  0  0  0  0  0  0  0  0  0
    8.4640   38.3250   -1.2870 C   0  0  0  0  0  0  0  0  0  0  0  0
    4.0000   39.6090    1.8320 O   0  0  0  0  0  0  0  0  0  0  0  0
    2.8750   37.6680    1.0420 C   0  0  0  0  0  0  0  0  0  0  0  0
    8.9870   38.6660    0.1010 C   0  0  0  0  0  0  0  0  0  0  0  0
    2.1380   37.4870    2.1920 O   0  0  0  0  0  0  0  0  0  0  0  0
    8.1850   39.6540    1.0020 C   0  0  0  0  0  0  0  0  0  0  0  0
    2.6490   37.9560    3.4790 C   0  0  0  0  0  0  0  0  0  0  0  0
    9.0910   39.8530    2.2470 C   0  0  0  0  0  0  0  0  0  0  0  0
    6.8970   38.9780    1.5280 C   0  0  0  0  0  0  0  0  0  0  0  0
    7.8700   41.0880    0.4240 C   0  0  2  0  0  0  0  0  0  0  0  0
    1.6640   38.8740    4.2600 C   0  0  2  0  0  0  0  0  0  0  0  0
    6.6840   41.2210   -0.5510 C   0  0  0  0  0  0  0  0  0  0  0  0
    9.1180   41.8350   -0.1020 C   0  0  0  0  0  0  0  0  0  0  0  0
    1.1130   38.5080    5.6120 N   0  0  0  0  0  0  0  0  0  0  0  0
    0.4780   39.3140    3.4130 C   0  0  0  0  0  0  0  0  0  0  0  0
    6.4400   42.6840   -0.9450 C   0  0  2  0  0  0  0  0  0  0  0  0
    8.8550   43.2800   -0.5200 C   0  0  0  0  0  0  0  0  0  0  0  0
   -0.0580   40.6210    3.9810 C   0  0  0  0  0  0  0  0  0  0  0  0
    0.7310   39.7500    6.2860 C   0  0  0  0  0  0  0  0  0  0  0  0
    1.7190   37.5720    6.5980 C   0  0  0  0  0  0  0  0  0  0  0  0
    5.4180   42.7490   -1.9480 O   0  0  0  0  0  0  0  0  0  0  0  0
    7.6920   43.3840   -1.4900 C   0  0  2  0  0  0  0  0  0  0  0  0
   -0.2860   40.5790    5.4990 C   0  0  0  0  0  0  0  0  0  0  0  0
    0.9400   36.2810    6.8610 C   0  0  0  0  0  0  0  0  0  0  0  0
    3.2140   37.2250    6.4720 C   0  0  0  0  0  0  0  0  0  0  0  0
    7.4040   44.7680   -1.7120 O   0  0  0  0  0  0  0  0  0  0  0  0
    1.4450   35.6860    8.1620 C   0  0  0  0  0  0  0  0  0  0  0  0
    3.6900   36.5130    7.7420 C   0  0  0  0  0  0  0  0  0  0  0  0
    2.5860   36.4390    8.6970 N   0  0  0  0  0  0  0  0  0  0  0  0
  2  1  1  0
  2  3  1  0
  2  4  1  0
  2  5  1  0
  5  6  2  0
  5  7  1  0
  4  8  1  0
  6  9  1  0
  7 10  2  0
  8 11  1  0
  9 12  1  0
  9 13  2  0
 10 13  1  0
 11 14  1  0
 13 15  1  0
 16 14  1  0
 15 17  1  0
 16 18  1  0
 16 19  1  0
 20 16  1  6
 21 17  1  6
 20 22  1  0
 20 23  1  0
 21 24  1  0
 21 25  1  0
 22 26  1  0
 23 27  1  0
 25 28  1  0
 24 29  1  0
 24 30  1  0
 26 31  1  6
 26 32  1  0
 27 32  1  0
 28 33  1  0
 29 33  1  0
 30 34  1  0
 30 35  1  0
 32 36  1  1
 34 37  1  0
 35 38  1  0
 37 39  1  0
 38 39  1  0
M  END
