mac-x0305-diamond-x1018_0_A
     RDKit          3D

 16 17  0  0  0  0  0  0  0  0999 V2000
    0.1600   12.8270   -1.0820 O   0  0  0  0  0  0  0  0  0  0  0  0
   -0.2050   13.9850   -1.6990 C   0  0  0  0  0  0  0  0  0  0  0  0
    0.2350   14.2260   -2.8090 O   0  0  0  0  0  0  0  0  0  0  0  0
   -1.1610   14.8720   -0.9060 C   0  0  2  0  0  0  0  0  0  0  0  0
   -1.5890   14.2190    0.4110 C   0  0  1  0  0  0  0  0  0  0  0  0
   -2.3080   15.3130   -1.7470 N   0  0  0  0  0  0  0  0  0  0  0  0
   -1.3670   15.1230    1.5130 O   0  0  0  0  0  0  0  0  0  0  0  0
   -3.0370   13.7170    0.3840 C   0  0  0  0  0  0  0  0  0  0  0  0
   -3.4240   15.7860   -0.9320 C   0  0  0  0  0  0  0  0  0  0  0  0
   -4.1100   14.7230   -0.0630 C   0  0  1  0  0  0  0  0  0  0  0  0
   -5.1170   14.0520   -0.9600 N   0  0  0  0  0  0  0  0  0  0  0  0
   -4.7080   15.2050    1.2500 C   0  0  0  0  0  0  0  0  0  0  0  0
   -6.5030   14.5000   -0.7080 N   0  0  0  0  0  0  0  0  0  0  0  0
   -5.9740   14.9320    1.5910 C   0  0  0  0  0  0  0  0  0  0  0  0
   -6.8650   14.1830    0.6720 C   0  0  1  0  0  0  0  0  0  0  0  0
   -8.5560   14.6670    0.9120 Cl  0  0  0  0  0  0  0  0  0  0  0  0
  1  2  1  0
  2  3  2  0
  4  2  1  6
  4  5  1  0
  4  6  1  0
  5  7  1  1
  5  8  1  0
  6  9  1  0
 10  8  1  1
  9 10  1  0
 10 11  1  0
 10 12  1  0
 11 13  1  0
 12 14  2  0
 13 15  1  0
 14 15  1  0
 15 16  1  1
M  END
