mac-x0338-diamond-x0837_0_A
     RDKit          3D

 10 10  0  0  0  0  0  0  0  0999 V2000
   -4.1730   15.4900    2.1010 N   0  0  0  0  0  0  0  0  0  0  0  0
   -5.1800   14.9650    1.3520 C   0  0  0  0  0  0  0  0  0  0  0  0
   -6.3220   14.8900    1.7880 O   0  0  0  0  0  0  0  0  0  0  0  0
   -4.7990   14.4890   -0.0380 C   0  0  2  0  0  0  0  0  0  0  0  0
   -3.4620   15.0040   -0.4630 N   0  0  0  0  0  0  0  0  0  0  0  0
   -5.9100   14.8540   -1.0290 C   0  0  0  0  0  0  0  0  0  0  0  0
   -7.1010   14.9410   -0.7010 O   0  0  0  0  0  0  0  0  0  0  0  0
   -3.2100   15.0710   -1.8140 C   0  0  0  0  0  0  0  0  0  0  0  0
   -5.5060   15.0810   -2.3320 N   0  0  0  0  0  0  0  0  0  0  0  0
   -4.1890   15.1120   -2.7250 C   0  0  0  0  0  0  0  0  0  0  0  0
  1  2  1  0
  2  3  2  0
  4  2  1  1
  4  5  1  0
  4  6  1  0
  6  7  2  0
  5  8  1  0
  6  9  1  0
  8 10  2  0
  9 10  1  0
M  END
