mac-x0206-mac-x0255
     RDKit          3D

 25 27  0  0  0  0  0  0  0  0999 V2000
   -3.0560   15.0360   -0.5530 N   0  0  0  0  0  0  0  0  0  0  0  0
   -4.2760   14.9890   -1.1860 C   0  0  0  0  0  0  0  0  0  0  0  0
   -4.4330   14.9750   -2.4970 N   0  0  0  0  0  0  0  0  0  0  0  0
   -5.4930   14.9050   -0.2720 C   0  0  0  0  0  0  0  0  0  0  0  0
   -3.2210   14.9800   -3.3590 C   0  0  0  0  0  0  0  0  0  0  0  0
   -6.7960   14.8000   -0.7760 C   0  0  0  0  0  0  0  0  0  0  0  0
   -5.3360   14.9170    1.1330 C   0  0  0  0  0  0  0  0  0  0  0  0
   -7.0620   14.7770   -2.1150 O   0  0  0  0  0  0  0  0  0  0  0  0
   -3.2730   15.5100   -4.8330 C   0  0  0  0  0  0  0  0  0  0  0  0
   -7.9060   14.7070    0.0670 C   0  0  0  0  0  0  0  0  0  0  0  0
   -6.4590   14.8230    1.9770 C   0  0  0  0  0  0  0  0  0  0  0  0
   -7.7370   14.7160    1.4480 C   0  0  0  0  0  0  0  0  0  0  0  0
   -2.0200   16.3230   -5.0750 C   0  0  0  0  0  0  0  0  0  0  0  0
   -0.8340   15.6600   -4.8570 C   0  0  0  0  0  0  0  0  0  0  0  0
   -1.9250   17.6800   -5.4850 C   0  0  0  0  0  0  0  0  0  0  0  0
    0.4150   16.2360   -4.9920 C   0  0  0  0  0  0  0  0  0  0  0  0
   -0.7390   14.0160   -4.3870 S   0  0  0  0  0  0  0  0  0  0  0  0
   -0.6910   18.2970   -5.6350 C   0  0  0  0  0  0  0  0  0  0  0  0
    0.9420   14.0460   -4.3520 C   0  0  0  0  0  0  0  0  0  0  0  0
    1.4360   15.2830   -4.6820 C   0  0  0  0  0  0  0  0  0  0  0  0
    0.4860   17.5910   -5.3870 C   0  0  0  0  0  0  0  0  0  0  0  0
    1.6430   12.7920   -3.9820 C   0  0  0  0  0  0  0  0  0  0  0  0
    0.9370   12.1880   -2.7960 C   0  0  0  0  0  0  0  0  0  0  0  0
    1.1660   12.9300   -1.6970 O   0  0  0  0  0  0  0  0  0  0  0  0
    0.2200   11.2000   -2.7290 O   0  0  0  0  0  0  0  0  0  0  0  0
  1  2  1  0
  2  3  2  3
  2  4  1  0
  3  5  1  0
  4  6  2  0
  4  7  1  0
  6  8  1  0
  5  9  1  0
  6 10  1  0
  7 11  2  0
 10 12  2  0
 11 12  1  0
  9 13  1  0
 13 14  1  0
 13 15  2  0
 14 16  2  0
 14 17  1  0
 15 18  1  0
 17 19  1  0
 16 20  1  0
 19 20  2  0
 16 21  1  0
 18 21  2  0
 19 22  1  0
 22 23  1  0
 23 24  1  0
 23 25  2  0
M  END
