mac-x0587-mac-x0360
     RDKit          3D

 26 27  0  0  0  0  0  0  0  0999 V2000
   -0.6740   15.8470   -3.6720 C   0  0  0  0  0  0  0  0  0  0  0  0
   -1.1290   14.4900   -3.0860 C   0  0  2  0  0  0  0  0  0  0  0  0
   -0.8900   13.3000   -4.5070 S   0  0  0  0  0  0  0  0  0  0  0  0
   -2.6250   14.5100   -2.5270 C   0  0  1  0  0  0  0  0  0  0  0  0
   -0.9240   11.7040   -3.6110 C   0  0  0  0  0  0  0  0  0  0  0  0
   -3.5590   14.2930   -3.6080 O   0  0  0  0  0  0  0  0  0  0  0  0
   -2.7810   13.4800   -0.8670 S   0  0  0  0  0  0  0  0  0  0  0  0
   -2.9480   15.7440   -1.8670 N   0  0  0  0  0  0  0  0  0  0  0  0
    0.4150   11.3840   -3.0000 C   0  0  0  0  0  0  0  0  0  0  0  0
   -3.1300   14.3440    0.2270 O   0  0  0  0  0  0  0  0  0  0  0  0
   -1.5610   12.7470   -0.6860 O   0  0  0  0  0  0  0  0  0  0  0  0
   -4.2310   15.6850   -1.1570 C   0  0  0  0  0  0  0  0  0  0  0  0
   -1.9440   15.9820   -0.9020 C   0  0  0  0  0  0  0  0  0  0  0  0
   -4.2050   12.4130   -0.8610 C   0  0  0  0  0  0  0  0  0  0  0  0
    0.6640   10.4460   -2.2510 O   0  0  0  0  0  0  0  0  0  0  0  0
    1.3880   12.2570   -3.3380 O   0  0  0  0  0  0  0  0  0  0  0  0
   -0.7480   16.1260   -1.0940 O   0  0  0  0  0  0  0  0  0  0  0  0
   -3.9220   15.8830    0.3210 C   0  0  0  0  0  0  0  0  0  0  0  0
   -2.5030   16.0110    0.3560 N   0  0  0  0  0  0  0  0  0  0  0  0
   -4.3630   11.4660   -1.8570 C   0  0  0  0  0  0  0  0  0  0  0  0
   -5.1520   12.5450    0.1740 C   0  0  0  0  0  0  0  0  0  0  0  0
   -5.4780   10.6390   -1.8180 C   0  0  0  0  0  0  0  0  0  0  0  0
   -6.2650   11.7050    0.1920 C   0  0  0  0  0  0  0  0  0  0  0  0
   -7.4330   11.8450    1.4510 Cl  0  0  0  0  0  0  0  0  0  0  0  0
   -5.6730    9.4570   -3.0450 Cl  0  0  0  0  0  0  0  0  0  0  0  0
   -6.4330   10.7490   -0.8040 C   0  0  0  0  0  0  0  0  0  0  0  0
  2  1  1  6
  2  3  1  0
  2  4  1  0
  3  5  1  0
  4  6  1  6
  4  7  1  0
  4  8  1  0
  5  9  1  0
  7 10  2  0
  7 11  2  0
  8 12  1  0
  8 13  1  0
  7 14  1  0
  9 15  2  0
  9 16  1  0
 13 17  2  0
 12 18  1  0
 13 19  1  0
 18 19  1  0
 14 20  2  0
 14 21  1  0
 20 22  1  0
 21 23  2  0
 23 24  1  0
 22 25  1  0
 22 26  2  0
 23 26  1  0
M  END
