mac-x0178-mac-x0397
     RDKit          3D

 26 28  0  0  0  0  0  0  0  0999 V2000
   -0.3520   18.3730   -6.5820 N   0  0  0  0  0  0  0  0  0  0  0  0
   -1.6410   17.7310   -5.7380 S   0  0  0  0  0  0  0  0  0  0  0  0
   -2.5790   17.2400   -6.7210 O   0  0  0  0  0  0  0  0  0  0  0  0
   -1.9960   18.6990   -4.7340 O   0  0  0  0  0  0  0  0  0  0  0  0
   -0.8690   16.3690   -4.9310 C   0  0  0  0  0  0  0  0  0  0  0  0
    0.4150   16.4730   -4.3900 C   0  0  0  0  0  0  0  0  0  0  0  0
   -1.5870   15.1920   -4.8460 C   0  0  0  0  0  0  0  0  0  0  0  0
    0.9800   15.3670   -3.7470 C   0  0  0  0  0  0  0  0  0  0  0  0
   -1.0300   14.1010   -4.2080 C   0  0  0  0  0  0  0  0  0  0  0  0
    0.2540   14.1750   -3.6520 C   0  0  0  0  0  0  0  0  0  0  0  0
   -1.7860   12.8590   -4.0800 C   0  0  0  0  0  0  0  0  0  0  0  0
    0.9010   13.0320   -2.9390 C   0  0  0  0  0  0  0  0  0  0  0  0
   -1.8890   12.6440   -2.5920 C   0  0  0  0  0  0  0  0  0  0  0  0
    1.6230   13.1190   -1.9680 O   0  0  0  0  0  0  0  0  0  0  0  0
    0.5940   11.8400   -3.4760 O   0  0  0  0  0  0  0  0  0  0  0  0
   -2.9960   13.3850   -1.8980 C   0  0  0  0  0  0  0  0  0  0  0  0
   -4.1160   13.9240   -2.5540 C   0  0  0  0  0  0  0  0  0  0  0  0
   -2.8760   13.4860   -0.5330 C   0  0  0  0  0  0  0  0  0  0  0  0
   -3.8970   14.0620    0.1740 C   0  0  0  0  0  0  0  0  0  0  0  0
   -5.1310   14.5120   -1.7930 C   0  0  0  0  0  0  0  0  0  0  0  0
   -6.5500   15.1710   -2.4680 Cl  0  0  0  0  0  0  0  0  0  0  0  0
   -5.0440   14.5660   -0.4050 C   0  0  0  0  0  0  0  0  0  0  0  0
   -3.9620   14.2400    1.8330 S   0  0  0  0  0  0  0  0  0  0  0  0
   -5.5250   14.9030    1.7040 C   0  0  0  0  0  0  0  0  0  0  0  0
   -5.9730   15.0450    0.4880 N   0  0  0  0  0  0  0  0  0  0  0  0
   -6.2220   15.2260    2.7950 N   0  0  0  0  0  0  0  0  0  0  0  0
  2  1  1  0
  2  3  2  0
  2  4  2  0
  2  5  1  0
  5  6  2  0
  5  7  1  0
  6  8  1  0
  7  9  2  0
  8 10  2  0
  9 10  1  0
  9 11  1  0
 10 12  1  0
 11 13  1  0
 12 14  2  0
 12 15  1  0
 13 16  1  0
 16 17  2  0
 16 18  1  0
 18 19  2  0
 17 20  1  0
 20 21  1  0
 19 22  1  0
 20 22  2  0
 19 23  1  0
 23 24  1  0
 22 25  1  0
 24 25  2  0
 24 26  1  0
M  END
