mac-x0226-diamond-x0282_0_A
     RDKit          3D

 30 33  0  0  0  0  0  0  0  0999 V2000
    1.8440   11.9800   -2.3280 O   0  0  0  0  0  0  0  0  0  0  0  0
    0.7790   12.5430   -3.0000 C   0  0  0  0  0  0  0  0  0  0  0  0
   -0.3460   12.0070   -2.3270 O   0  0  0  0  0  0  0  0  0  0  0  0
    1.1070   14.0440   -2.8420 C   0  0  0  0  0  0  0  0  0  0  0  0
    0.8240   12.1770   -4.4330 C   0  0  0  0  0  0  0  0  0  0  0  0
   -0.0130   14.9820   -2.4530 C   0  0  0  0  0  0  0  0  0  0  0  0
    1.7630   12.6740   -5.3410 C   0  0  0  0  0  0  0  0  0  0  0  0
    0.0310   11.3340   -5.1970 C   0  0  0  0  0  0  0  0  0  0  0  0
    1.5990   12.2040   -6.5620 N   0  0  0  0  0  0  0  0  0  0  0  0
    0.5310   11.3750   -6.4860 N   0  0  0  0  0  0  0  0  0  0  0  0
   -0.4560   14.7900   -1.0460 C   0  0  0  0  0  0  0  0  0  0  0  0
    0.0840   10.7000   -7.6530 C   0  0  0  0  0  0  0  0  0  0  0  0
   -1.7500   14.6030   -0.8870 N   0  0  0  0  0  0  0  0  0  0  0  0
    0.4060   14.8070    0.0050 C   0  0  0  0  0  0  0  0  0  0  0  0
   -1.0370    9.8730   -7.6530 C   0  0  0  0  0  0  0  0  0  0  0  0
    0.7910   10.8740   -8.8410 C   0  0  0  0  0  0  0  0  0  0  0  0
   -0.1510   14.6160    1.2500 C   0  0  0  0  0  0  0  0  0  0  0  0
   -2.2190   14.4320    0.3310 C   0  0  0  0  0  0  0  0  0  0  0  0
   -1.4280    9.2430   -8.8360 C   0  0  0  0  0  0  0  0  0  0  0  0
    0.4110   10.2530  -10.0150 C   0  0  0  0  0  0  0  0  0  0  0  0
   -3.5670   14.2550    0.3940 N   0  0  0  0  0  0  0  0  0  0  0  0
   -1.4580   14.4300    1.4500 N   0  0  0  0  0  0  0  0  0  0  0  0
   -0.7040    9.4330  -10.0140 C   0  0  0  0  0  0  0  0  0  0  0  0
   -4.0090   14.2200    1.7670 C   0  0  0  0  0  0  0  0  0  0  0  0
   -4.3170   15.0490   -0.5900 C   0  0  0  0  0  0  0  0  0  0  0  0
   -5.3270   14.9380    1.8640 C   0  0  0  0  0  0  0  0  0  0  0  0
   -5.8380   14.8100   -0.5140 C   0  0  0  0  0  0  0  0  0  0  0  0
   -6.2510   14.2850    0.8620 C   0  0  0  0  0  0  0  0  0  0  0  0
   -7.7350   14.3920    1.2070 C   0  0  0  0  0  0  0  0  0  0  0  0
   -8.5520   14.6090    0.0730 O   0  0  0  0  0  0  0  0  0  0  0  0
  2  1  1  0
  2  3  1  0
  2  4  1  0
  2  5  1  0
  4  6  1  0
  5  7  1  0
  5  8  2  0
  7  9  2  0
  8 10  1  0
  9 10  1  0
  6 11  1  0
 10 12  1  0
 11 13  2  0
 11 14  1  0
 12 15  2  0
 12 16  1  0
 14 17  2  0
 13 18  1  0
 15 19  1  0
 16 20  2  0
 18 21  1  0
 17 22  1  0
 18 22  2  0
 19 23  2  0
 20 23  1  0
 21 24  1  0
 21 25  1  0
 24 26  1  0
 25 27  1  0
 26 28  1  0
 27 28  1  0
 28 29  1  0
 29 30  1  0
M  END
