mac-x0305-diamond-x0724_0_A
     RDKit          3D

 17 18  0  0  0  0  0  0  0  0999 V2000
   -0.2190   13.2650   -0.3430 O   0  0  0  0  0  0  0  0  0  0  0  0
   -0.7510   14.0900   -1.3000 C   0  0  0  0  0  0  0  0  0  0  0  0
   -0.2560   14.1910   -2.4190 O   0  0  0  0  0  0  0  0  0  0  0  0
   -2.0070   14.8900   -0.8450 C   0  0  2  0  0  0  0  0  0  0  0  0
   -2.3870   14.7040    0.6350 C   0  0  1  0  0  0  0  0  0  0  0  0
   -3.1940   14.5460   -1.7020 N   0  0  0  0  0  0  0  0  0  0  0  0
   -1.3660   15.1440    1.5380 O   0  0  0  0  0  0  0  0  0  0  0  0
   -3.7330   15.4520    0.8620 C   0  0  0  0  0  0  0  0  0  0  0  0
   -4.2710   13.8290   -0.9230 C   0  0  0  0  0  0  0  0  0  0  0  0
   -4.9020   14.5720    0.3190 C   0  0  2  0  0  0  0  0  0  0  0  0
   -6.2000   15.2140   -0.1330 N   0  0  0  0  0  0  0  0  0  0  0  0
   -5.4710   13.6820    1.4810 C   0  0  0  0  0  0  0  0  0  0  0  0
   -6.6110   14.5540    2.0280 C   0  0  1  0  0  0  0  0  0  0  0  0
   -7.3280   14.7050    0.7080 C   0  0  0  0  0  0  0  0  0  0  0  0
   -7.4010   14.0920    3.2720 C   0  0  0  0  0  0  0  0  0  0  0  0
   -8.8500   14.2290    3.3570 N   0  0  0  0  0  0  0  0  0  0  0  0
   -9.2570   14.1630    4.7660 C   0  0  0  0  0  0  0  0  0  0  0  0
  1  2  1  0
  2  3  2  0
  4  2  1  6
  4  5  1  0
  4  6  1  0
  5  7  1  1
  5  8  1  0
  6  9  1  0
 10  8  1  1
  9 10  1  0
 10 11  1  0
 10 12  1  0
 12 13  1  0
 11 14  1  0
 13 14  1  0
 13 15  1  1
 15 16  1  0
 16 17  1  0
M  END
