mac-x0472-diamond-x0421_0_A
     RDKit          3D

 17 19  0  0  0  0  0  0  0  0999 V2000
   -4.2910   15.4260   -2.7230 O   0  0  0  0  0  0  0  0  0  0  0  0
   -3.2720   14.4040   -2.7520 S   0  0  0  0  0  0  0  0  0  0  0  0
   -2.4070   14.2350   -3.8950 O   0  0  0  0  0  0  0  0  0  0  0  0
   -2.3080   14.6230   -1.4130 N   0  0  0  0  0  0  0  0  0  0  0  0
   -4.0490   12.8340   -2.4100 C   0  0  0  0  0  0  0  0  0  0  0  0
   -3.0600   14.3610   -0.2300 C   0  0  1  0  0  0  0  0  0  0  0  0
   -3.3660   11.6560   -2.7300 C   0  0  0  0  0  0  0  0  0  0  0  0
   -5.3220   12.7840   -1.8300 C   0  0  0  0  0  0  0  0  0  0  0  0
   -2.4510   14.7200    1.0370 N   0  0  0  0  0  0  0  0  0  0  0  0
   -4.4710   15.4810   -0.3130 S   0  0  0  0  0  0  0  0  0  0  0  0
   -3.9640   10.4240   -2.4750 C   0  0  0  0  0  0  0  0  0  0  0  0
   -5.9120   11.5440   -1.5760 C   0  0  0  0  0  0  0  0  0  0  0  0
   -4.8540   14.7670    1.1930 C   0  0  0  0  0  0  0  0  0  0  0  0
   -3.5860   14.8300    1.9960 N   0  0  0  0  0  0  0  0  0  0  0  0
   -5.2360   10.3710   -1.8990 C   0  0  0  0  0  0  0  0  0  0  0  0
   -6.2870   14.7440    1.7170 C   0  0  0  0  0  0  0  0  0  0  0  0
   -5.6820   13.4900    1.1810 C   0  0  0  0  0  0  0  0  0  0  0  0
  1  2  2  0
  2  3  2  0
  2  4  1  0
  2  5  1  0
  6  4  1  6
  5  7  2  0
  5  8  1  0
  6  9  1  0
  6 10  1  0
  7 11  1  0
  8 12  2  0
 13 10  1  0
  9 14  1  0
 13 14  1  0
 11 15  2  0
 12 15  1  0
 13 16  1  0
 13 17  1  0
 16 17  1  0
M  END
