mac-x0365-diamond-x0933_0_A
     RDKit          3D

 12 12  0  0  0  0  0  0  0  0999 V2000
   -0.7870   14.8020   -1.2180 O   0  0  0  0  0  0  0  0  0  0  0  0
   -1.7930   14.7760   -2.1160 C   0  0  0  0  0  0  0  0  0  0  0  0
   -1.6130   14.6490   -3.3140 O   0  0  0  0  0  0  0  0  0  0  0  0
   -3.1490   14.9180   -1.5310 C   0  0  0  0  0  0  0  0  0  0  0  0
   -4.2020   14.9350   -2.4460 C   0  0  0  0  0  0  0  0  0  0  0  0
   -3.4080   15.0320   -0.1410 C   0  0  0  0  0  0  0  0  0  0  0  0
   -5.4930   15.0530   -1.9840 C   0  0  0  0  0  0  0  0  0  0  0  0
   -4.7340   15.1540    0.3080 C   0  0  0  0  0  0  0  0  0  0  0  0
   -6.5120   15.0670   -2.8450 F   0  0  0  0  0  0  0  0  0  0  0  0
   -5.0790   15.2790    1.6670 N   0  0  0  0  0  0  0  0  0  0  0  0
   -5.7620   15.1580   -0.6360 C   0  0  0  0  0  0  0  0  0  0  0  0
   -7.0640   15.2680   -0.2220 O   0  0  0  0  0  0  0  0  0  0  0  0
  1  2  1  0
  2  3  2  0
  2  4  1  0
  4  5  2  0
  4  6  1  0
  5  7  1  0
  6  8  2  0
  7  9  1  0
  8 10  1  0
  7 11  2  0
  8 11  1  0
 11 12  1  0
M  END
