mac-x0190-mac-x0231
     RDKit          3D

 28 31  0  0  0  0  0  0  0  0999 V2000
   -9.2410   15.3180    2.1210 O   0  0  0  0  0  0  0  0  0  0  0  0
   -8.2420   14.3190    2.2880 C   0  0  0  0  0  0  0  0  0  0  0  0
   -7.1970   14.5200    1.2540 C   0  0  0  0  0  0  0  0  0  0  0  0
   -7.4780   14.3410   -0.0580 N   0  0  0  0  0  0  0  0  0  0  0  0
   -5.9260   14.8730    1.4170 N   0  0  0  0  0  0  0  0  0  0  0  0
   -6.3430   14.5780   -0.7670 C   0  0  0  0  0  0  0  0  0  0  0  0
   -5.3760   14.9150    0.1520 C   0  0  0  0  0  0  0  0  0  0  0  0
   -6.1370   14.5090   -2.1080 C   0  0  0  0  0  0  0  0  0  0  0  0
   -4.0780   15.2210   -0.3300 C   0  0  0  0  0  0  0  0  0  0  0  0
   -4.8940   14.7780   -2.6370 C   0  0  0  0  0  0  0  0  0  0  0  0
   -3.8330   15.1520   -1.7420 C   0  0  0  0  0  0  0  0  0  0  0  0
   -4.9900   14.5640   -4.1770 C   0  0  0  0  0  0  0  0  0  0  0  0
   -4.0940   15.1530   -5.2900 C   0  0  0  0  0  0  0  0  0  0  0  0
   -2.6960   14.8080   -5.1210 C   0  0  0  0  0  0  0  0  0  0  0  0
   -1.8080   15.8350   -4.8890 C   0  0  0  0  0  0  0  0  0  0  0  0
   -2.2870   13.4870   -5.1880 C   0  0  0  0  0  0  0  0  0  0  0  0
   -0.4820   15.5350   -4.6980 C   0  0  0  0  0  0  0  0  0  0  0  0
   -0.9510   13.1850   -4.9900 C   0  0  0  0  0  0  0  0  0  0  0  0
   -0.0590   14.2190   -4.7340 C   0  0  0  0  0  0  0  0  0  0  0  0
    0.4760   16.6040   -4.4550 C   0  0  0  0  0  0  0  0  0  0  0  0
    0.1440   17.7860   -4.4420 O   0  0  0  0  0  0  0  0  0  0  0  0
    1.3580   13.9810   -4.4730 C   0  0  0  0  0  0  0  0  0  0  0  0
    1.7610   16.1950   -4.2590 N   0  0  0  0  0  0  0  0  0  0  0  0
    1.8280   12.5730   -4.3990 C   0  0  0  0  0  0  0  0  0  0  0  0
    2.2060   14.9170   -4.2400 N   0  0  0  0  0  0  0  0  0  0  0  0
    1.2840   11.9790   -3.1390 C   0  0  0  0  0  0  0  0  0  0  0  0
    0.6170   10.8280   -3.3430 O   0  0  0  0  0  0  0  0  0  0  0  0
    1.3910   12.4390   -2.0180 O   0  0  0  0  0  0  0  0  0  0  0  0
  1  2  1  0
  2  3  1  0
  3  4  1  0
  3  5  2  0
  4  6  1  0
  5  7  1  0
  6  7  2  0
  6  8  1  0
  7  9  1  0
  8 10  2  0
  9 11  2  0
 10 11  1  0
 10 12  1  0
 12 13  1  0
 13 14  1  0
 14 15  2  0
 14 16  1  0
 15 17  1  0
 16 18  2  0
 17 19  2  0
 18 19  1  0
 17 20  1  0
 20 21  2  0
 19 22  1  0
 20 23  1  0
 22 24  1  0
 22 25  2  0
 23 25  1  0
 24 26  1  0
 26 27  1  0
 26 28  2  0
M  END
