mac-x0455-diamond-x0950_1_A
     RDKit          3D

 17 17  0  0  0  0  0  0  0  0999 V2000
   -2.3440   14.3860   -2.4330 C   0  0  0  0  0  0  0  0  0  0  0  0
   -1.1330   14.2660   -3.3650 C   0  0  1  0  0  0  0  0  0  0  0  0
   -1.1680   15.4650   -4.1630 O   0  0  0  0  0  0  0  0  0  0  0  0
    0.1420   14.3160   -2.4620 C   0  0  0  0  0  0  0  0  0  0  0  0
   -1.1420   13.0790   -4.3450 C   0  0  0  0  0  0  0  0  0  0  0  0
    0.6700   15.3850   -2.1940 O   0  0  0  0  0  0  0  0  0  0  0  0
    0.5470   13.0930   -2.0440 O   0  0  0  0  0  0  0  0  0  0  0  0
   -1.9100   11.9330   -4.0440 C   0  0  0  0  0  0  0  0  0  0  0  0
   -0.4160   13.0660   -5.5510 C   0  0  0  0  0  0  0  0  0  0  0  0
    0.7780   12.1090   -2.9400 C   0  0  0  0  0  0  0  0  0  0  0  0
   -1.9450   10.8310   -4.9040 C   0  0  0  0  0  0  0  0  0  0  0  0
   -0.4490   11.9610   -6.4110 C   0  0  0  0  0  0  0  0  0  0  0  0
    1.6730   12.5780   -4.1170 C   0  0  2  0  0  0  0  0  0  0  0  0
    0.3600   10.9590   -2.8740 O   0  0  0  0  0  0  0  0  0  0  0  0
   -1.2110   10.8450   -6.0880 C   0  0  0  0  0  0  0  0  0  0  0  0
    1.6130   14.0570   -4.4540 C   0  0  0  0  0  0  0  0  0  0  0  0
    1.3260   11.8760   -5.3100 O   0  0  0  0  0  0  0  0  0  0  0  0
  2  1  1  1
  2  3  1  0
  2  4  1  0
  2  5  1  0
  4  6  2  0
  4  7  1  0
  5  8  2  0
  5  9  1  0
  7 10  1  0
  8 11  1  0
  9 12  2  0
 10 13  1  0
 10 14  2  0
 11 15  2  0
 12 15  1  0
 13 16  1  6
 13 17  1  0
M  END
