mac-x0441-diamond-x0465_0_A
     RDKit          3D

 20 22  0  0  0  0  0  0  0  0999 V2000
    1.7140   10.9370   -3.6230 O   0  0  0  0  0  0  0  0  0  0  0  0
    1.3050   12.2000   -3.7300 C   0  0  0  0  0  0  0  0  0  0  0  0
    1.7290   13.0020   -2.9140 O   0  0  0  0  0  0  0  0  0  0  0  0
    0.3010   12.5140   -4.8400 C   0  0  2  0  0  0  0  0  0  0  0  0
    0.1390   14.0120   -4.9550 C   0  0  0  0  0  0  0  0  0  0  0  0
   -0.9320   11.8160   -4.3570 O   0  0  0  0  0  0  0  0  0  0  0  0
    0.4390   11.8590   -6.1300 N   0  0  0  0  0  0  0  0  0  0  0  0
    1.3450   11.7610   -7.1200 N   0  0  0  0  0  0  0  0  0  0  0  0
   -0.6550   11.1710   -6.3930 C   0  0  0  0  0  0  0  0  0  0  0  0
   -1.6910   11.2320   -5.4530 C   0  0  1  0  0  0  0  0  0  0  0  0
    0.6940   10.9250   -8.0210 C   0  0  0  0  0  0  0  0  0  0  0  0
   -0.5530   10.5380   -7.5260 C   0  0  0  0  0  0  0  0  0  0  0  0
   -2.2800    9.8000   -5.3910 C   0  0  0  0  0  0  0  0  0  0  0  0
    1.1320   10.4180   -9.3670 C   0  0  0  0  0  0  0  0  0  0  0  0
   -1.6070    9.6620   -7.9980 C   0  0  2  0  0  0  0  0  0  0  0  0
   -2.4000    9.0630   -6.7820 C   0  0  0  0  0  0  0  0  0  0  0  0
    1.7920    9.2360   -9.3490 F   0  0  0  0  0  0  0  0  0  0  0  0
    0.0460   10.1910  -10.1390 F   0  0  0  0  0  0  0  0  0  0  0  0
    1.8340   11.3100  -10.1000 F   0  0  0  0  0  0  0  0  0  0  0  0
   -0.9600    8.6350   -8.5990 F   0  0  0  0  0  0  0  0  0  0  0  0
  1  2  1  0
  2  3  2  0
  4  2  1  0
  4  5  1  6
  4  6  1  0
  4  7  1  0
  7  8  1  0
  7  9  1  0
  6 10  1  0
  9 10  1  0
  8 11  2  0
  9 12  2  0
 11 12  1  0
 10 13  1  1
 11 14  1  0
 12 15  1  0
 13 16  1  0
 15 16  1  0
 14 17  1  0
 14 18  1  0
 14 19  1  0
 15 20  1  1
M  END
