mac-x0348-mac-x0411
     RDKit          3D

 25 27  0  0  0  0  0  0  0  0999 V2000
    0.7380   18.5850   -5.8450 C   0  0  0  0  0  0  0  0  0  0  0  0
    0.1150   17.3650   -5.4210 N   0  0  0  0  0  0  0  0  0  0  0  0
    0.7380   16.3940   -4.6910 C   0  0  0  0  0  0  0  0  0  0  0  0
   -1.1780   16.9980   -5.6940 C   0  0  0  0  0  0  0  0  0  0  0  0
   -0.1610   15.3700   -4.4940 C   0  0  0  0  0  0  0  0  0  0  0  0
   -1.3690   15.7430   -5.1200 C   0  0  0  0  0  0  0  0  0  0  0  0
   -2.1990   17.6340   -6.3960 C   0  0  0  0  0  0  0  0  0  0  0  0
    0.0490   14.0900   -3.7670 C   0  0  0  0  0  0  0  0  0  0  0  0
   -2.6140   15.1050   -5.2470 C   0  0  0  0  0  0  0  0  0  0  0  0
   -3.4190   16.9680   -6.5210 C   0  0  0  0  0  0  0  0  0  0  0  0
    0.9070   12.9770   -4.4340 C   0  0  1  0  0  0  0  0  0  0  0  0
   -3.6350   15.7220   -5.9540 C   0  0  0  0  0  0  0  0  0  0  0  0
    1.1040   12.0830   -3.2060 C   0  0  0  0  0  0  0  0  0  0  0  0
    0.3850   12.3470   -5.6980 O   0  0  0  0  0  0  0  0  0  0  0  0
    1.8020   12.4260   -2.2570 O   0  0  0  0  0  0  0  0  0  0  0  0
    0.4090   10.9190   -3.2440 N   0  0  0  0  0  0  0  0  0  0  0  0
   -0.5680   11.3040   -5.8120 C   0  0  0  0  0  0  0  0  0  0  0  0
   -0.5860   10.9480   -2.4690 C   0  0  0  0  0  0  0  0  0  0  0  0
   -1.7200   11.3250   -5.0080 C   0  0  0  0  0  0  0  0  0  0  0  0
   -0.4620   10.1960   -6.7230 C   0  0  0  0  0  0  0  0  0  0  0  0
    0.8310    9.9420   -7.8420 Cl  0  0  0  0  0  0  0  0  0  0  0  0
   -2.0170   12.5820   -3.8780 Cl  0  0  0  0  0  0  0  0  0  0  0  0
   -2.6980   10.3270   -5.0800 C   0  0  0  0  0  0  0  0  0  0  0  0
   -1.4540    9.2020   -6.7780 C   0  0  0  0  0  0  0  0  0  0  0  0
   -2.5680    9.2660   -5.9600 C   0  0  0  0  0  0  0  0  0  0  0  0
  1  2  1  0
  2  3  1  0
  2  4  1  0
  3  5  2  0
  4  6  2  0
  5  6  1  0
  4  7  1  0
  5  8  1  0
  6  9  1  0
  7 10  2  0
 11  8  1  1
  9 12  2  0
 10 12  1  0
 11 13  1  0
 11 14  1  0
 13 15  2  0
 13 16  1  0
 14 17  1  0
 16 18  2  3
 17 19  2  0
 17 20  1  0
 20 21  1  0
 19 22  1  0
 19 23  1  0
 20 24  2  0
 23 25  2  0
 24 25  1  0
M  END
