mac-x0328-mac-x0361
     RDKit          3D

 12 12  0  0  0  0  0  0  0  0999 V2000
   -1.7910   14.8270   -3.9000 O   0  0  0  0  0  0  0  0  0  0  0  0
   -1.8350   14.7780   -2.5510 C   0  0  0  0  0  0  0  0  0  0  0  0
   -0.8440   14.6730   -1.8530 O   0  0  0  0  0  0  0  0  0  0  0  0
   -3.2050   14.8580   -1.9890 C   0  0  0  0  0  0  0  0  0  0  0  0
   -3.4190   14.7880   -0.6090 C   0  0  0  0  0  0  0  0  0  0  0  0
   -4.2870   14.9980   -2.8610 C   0  0  0  0  0  0  0  0  0  0  0  0
   -4.7190   14.8470   -0.1120 C   0  0  0  0  0  0  0  0  0  0  0  0
   -5.5890   15.0560   -2.3530 C   0  0  0  0  0  0  0  0  0  0  0  0
   -5.8090   14.9740   -0.9780 C   0  0  0  0  0  0  0  0  0  0  0  0
   -7.1110   15.0080   -0.4790 N   0  0  0  0  0  0  0  0  0  0  0  0
   -7.2870   14.7860    0.7710 C   0  0  0  0  0  0  0  0  0  0  0  0
   -6.3880   14.5330    1.7640 N   0  0  0  0  0  0  0  0  0  0  0  0
  1  2  1  0
  2  3  2  0
  2  4  1  0
  4  5  2  0
  4  6  1  0
  5  7  1  0
  6  8  2  0
  7  9  2  0
  8  9  1  0
  9 10  1  0
 10 11  2  3
 11 12  1  0
M  END
