mac-x0115-mac-x0436
     RDKit          3D

 31 35  0  0  0  0  0  0  0  0999 V2000
   -1.4770   18.1710   -5.3450 C   0  0  0  0  0  0  0  0  0  0  0  0
   -0.2450   17.2720   -5.4150 C   0  0  0  0  0  0  0  0  0  0  0  0
    0.8800   17.8890   -4.6060 C   0  0  0  0  0  0  0  0  0  0  0  0
   -0.5490   15.9760   -4.8510 O   0  0  0  0  0  0  0  0  0  0  0  0
    0.4460   14.9280   -5.0210 C   0  0  0  0  0  0  0  0  0  0  0  0
    0.0650   13.5640   -4.2390 C   0  0  1  0  0  0  0  0  0  0  0  0
    1.2460   12.5720   -4.3110 C   0  0  0  0  0  0  0  0  0  0  0  0
   -0.2350   13.9820   -2.7560 N   0  0  0  0  0  0  0  0  0  0  0  0
   -0.9200   12.6430   -5.1870 C   0  0  2  0  0  0  0  0  0  0  0  0
    2.3400   12.6620   -3.3510 C   0  0  0  0  0  0  0  0  0  0  0  0
    0.7840   14.1530   -1.8100 C   0  0  0  0  0  0  0  0  0  0  0  0
   -1.4640   14.4410   -2.2670 C   0  0  0  0  0  0  0  0  0  0  0  0
   -1.9380   11.7420   -4.4220 C   0  0  0  0  0  0  0  0  0  0  0  0
   -0.2500   11.7430   -6.2340 N   0  0  0  0  0  0  0  0  0  0  0  0
    2.3630   13.5390   -1.8970 S   0  0  0  0  0  0  0  0  0  0  0  0
    3.3930   11.9460   -3.6850 O   0  0  0  0  0  0  0  0  0  0  0  0
   -2.5540   12.0880   -3.4290 O   0  0  0  0  0  0  0  0  0  0  0  0
    0.5990   14.8050   -0.6140 N   0  0  0  0  0  0  0  0  0  0  0  0
   -1.7580   14.2640   -0.8050 C   0  0  1  0  0  0  0  0  0  0  0  0
   -2.4920   15.0340   -2.8740 C   0  0  0  0  0  0  0  0  0  0  0  0
   -2.1480   10.4630   -4.9070 N   0  0  0  0  0  0  0  0  0  0  0  0
   -1.1940   10.9880   -7.1190 C   0  0  2  0  0  0  0  0  0  0  0  0
   -0.6250   14.8180    0.0420 C   0  0  0  0  0  0  0  0  0  0  0  0
   -3.0860   14.8930   -0.5770 N   0  0  0  0  0  0  0  0  0  0  0  0
   -3.4280   15.2700   -1.7750 C   0  0  0  0  0  0  0  0  0  0  0  0
   -2.3200   10.2390   -6.3210 C   0  0  1  0  0  0  0  0  0  0  0  0
   -0.5060   10.1070   -8.1550 C   0  0  0  0  0  0  0  0  0  0  0  0
   -0.7490   15.2240    1.1920 O   0  0  0  0  0  0  0  0  0  0  0  0
   -0.8080    8.7980   -8.3430 C   0  0  0  0  0  0  0  0  0  0  0  0
   -2.5000    8.7670   -6.6000 C   0  0  0  0  0  0  0  0  0  0  0  0
   -1.8010    8.1180   -7.5440 C   0  0  0  0  0  0  0  0  0  0  0  0
  1  2  1  0
  2  3  1  0
  2  4  1  0
  4  5  1  0
  6  5  1  6
  6  7  1  0
  6  8  1  0
  6  9  1  0
  7 10  1  0
  8 11  1  0
  8 12  1  0
  9 13  1  0
  9 14  1  1
 10 15  2  0
 11 15  2  0
 10 16  1  0
 13 17  2  0
 11 18  1  0
 12 19  1  0
 12 20  2  0
 13 21  1  0
 14 22  1  0
 18 23  1  0
 19 23  1  0
 19 24  1  1
 20 25  1  0
 24 25  2  0
 21 26  1  0
 22 26  1  0
 22 27  1  1
 23 28  2  0
 27 29  2  0
 26 30  1  1
 29 31  1  0
 30 31  2  0
M  END
