mac-x0546-mac-x0397
     RDKit          3D

 28 31  0  0  0  0  0  0  0  0999 V2000
   -4.5440   15.4180   -6.3770 C   0  0  0  0  0  0  0  0  0  0  0  0
   -3.8130   15.5070   -5.1290 N   0  0  0  0  0  0  0  0  0  0  0  0
   -4.3640   14.4060   -4.2900 C   0  0  0  0  0  0  0  0  0  0  0  0
   -2.4220   15.7270   -5.2080 C   0  0  0  0  0  0  0  0  0  0  0  0
   -5.8720   14.5000   -3.9480 C   0  0  0  0  0  0  0  0  0  0  0  0
   -1.5720   14.6910   -5.0680 C   0  0  0  0  0  0  0  0  0  0  0  0
   -1.8300   17.0670   -5.4710 C   0  0  0  0  0  0  0  0  0  0  0  0
   -6.1550   15.0920   -2.5600 C   0  0  0  0  0  0  0  0  0  0  0  0
   -0.1020   14.8620   -5.1980 C   0  0  1  0  0  0  0  0  0  0  0  0
   -0.5220   17.3690   -5.2700 C   0  0  0  0  0  0  0  0  0  0  0  0
    0.2750   16.2450   -4.7550 C   0  0  0  0  0  0  0  0  0  0  0  0
    0.8740   14.1240   -4.3760 C   0  0  0  0  0  0  0  0  0  0  0  0
   -4.8830   15.0040   -1.7680 C   0  0  0  0  0  0  0  0  0  0  0  0
    0.9520   12.6400   -4.3470 C   0  0  0  0  0  0  0  0  0  0  0  0
    1.2730   16.3240   -3.9450 N   0  0  0  0  0  0  0  0  0  0  0  0
    1.6330   15.0110   -3.7290 C   0  0  0  0  0  0  0  0  0  0  0  0
   -4.8710   14.9340   -0.3710 C   0  0  0  0  0  0  0  0  0  0  0  0
   -3.6560   14.9790   -2.4390 C   0  0  0  0  0  0  0  0  0  0  0  0
    0.6690   12.0910   -2.9620 C   0  0  0  0  0  0  0  0  0  0  0  0
   -5.9860   14.9510    0.4330 N   0  0  0  0  0  0  0  0  0  0  0  0
   -3.6510   14.8380    0.2830 C   0  0  0  0  0  0  0  0  0  0  0  0
   -2.4500   14.8760   -1.7660 C   0  0  0  0  0  0  0  0  0  0  0  0
    0.9480   12.5960   -1.8910 O   0  0  0  0  0  0  0  0  0  0  0  0
    0.0280   10.9050   -2.9920 O   0  0  0  0  0  0  0  0  0  0  0  0
   -5.6340   14.8760    1.6770 C   0  0  0  0  0  0  0  0  0  0  0  0
   -3.9430   14.7760    1.9500 S   0  0  0  0  0  0  0  0  0  0  0  0
   -2.4290   14.8010   -0.3810 C   0  0  0  0  0  0  0  0  0  0  0  0
   -6.5240   14.8820    2.6760 N   0  0  0  0  0  0  0  0  0  0  0  0
  1  2  1  0
  2  3  1  0
  2  4  1  0
  3  5  1  0
  4  6  2  0
  4  7  1  0
  5  8  1  0
  9  6  1  1
  7 10  2  0
  9 11  1  0
 10 11  1  0
  9 12  1  0
  8 13  1  0
 12 14  1  0
 11 15  2  0
 12 16  2  0
 15 16  1  0
 13 17  1  0
 13 18  2  0
 14 19  1  0
 17 20  1  0
 17 21  2  0
 18 22  1  0
 19 23  2  0
 19 24  1  0
 20 25  2  0
 21 26  1  0
 25 26  1  0
 21 27  1  0
 22 27  2  0
 25 28  1  0
M  END
