mac-x0341-mac-x0132
     RDKit          3D

 12 13  0  0  0  0  0  0  0  0999 V2000
   -6.8470   14.7210    2.3320 N   0  0  0  0  0  0  0  0  0  0  0  0
   -6.0940   14.7690    1.2060 C   0  0  0  0  0  0  0  0  0  0  0  0
   -4.8140   14.8280    1.3310 N   0  0  0  0  0  0  0  0  0  0  0  0
   -6.7150   14.7550   -0.0100 N   0  0  0  0  0  0  0  0  0  0  0  0
   -6.0300   14.9970   -1.1800 C   0  0  0  0  0  0  0  0  0  0  0  0
   -4.0190   14.8430    0.1910 C   0  0  0  0  0  0  0  0  0  0  0  0
   -6.5960   15.2400   -2.2310 O   0  0  0  0  0  0  0  0  0  0  0  0
   -4.5610   14.9240   -1.0830 C   0  0  0  0  0  0  0  0  0  0  0  0
   -2.6380   14.7620    0.3480 C   0  0  0  0  0  0  0  0  0  0  0  0
   -1.8070   14.7590   -0.7720 C   0  0  0  0  0  0  0  0  0  0  0  0
   -3.7430   14.9290   -2.2130 C   0  0  0  0  0  0  0  0  0  0  0  0
   -2.3610   14.8440   -2.0520 C   0  0  0  0  0  0  0  0  0  0  0  0
  1  2  1  0
  2  3  2  0
  2  4  1  0
  4  5  1  0
  3  6  1  0
  5  7  2  0
  5  8  1  0
  6  8  2  0
  6  9  1  0
  9 10  2  0
  8 11  1  0
 10 12  1  0
 11 12  2  0
M  END
