mac-x0375-mac-x0142
     RDKit          3D

 28 32  0  0  0  0  0  0  0  0999 V2000
    0.5480   12.2780   -2.2950 O   0  0  0  0  0  0  0  0  0  0  0  0
    0.8770   11.2880   -3.1410 C   0  0  0  0  0  0  0  0  0  0  0  0
    0.6950   10.1360   -2.7950 O   0  0  0  0  0  0  0  0  0  0  0  0
    1.4960   11.8460   -4.4220 C   0  0  1  0  0  0  0  0  0  0  0  0
    0.6850   11.8490   -5.6370 O   0  0  0  0  0  0  0  0  0  0  0  0
    1.6880   13.2540   -4.0280 C   0  0  1  0  0  0  0  0  0  0  0  0
   -0.4530   11.1060   -5.8860 C   0  0  0  0  0  0  0  0  0  0  0  0
    1.7180   14.3800   -4.9640 C   0  0  0  0  0  0  0  0  0  0  0  0
    0.4790   14.1560   -4.1970 C   0  0  1  0  0  0  0  0  0  0  0  0
   -0.7280   10.5470   -7.1390 C   0  0  0  0  0  0  0  0  0  0  0  0
   -1.3620   10.9020   -4.8440 C   0  0  0  0  0  0  0  0  0  0  0  0
   -0.6570   13.5170   -4.9660 C   0  0  0  0  0  0  0  0  0  0  0  0
    0.1150   15.1900   -3.1850 C   0  0  0  0  0  0  0  0  0  0  0  0
   -1.8850    9.7880   -7.3390 C   0  0  0  0  0  0  0  0  0  0  0  0
   -2.5200   10.1480   -5.0510 C   0  0  0  0  0  0  0  0  0  0  0  0
   -1.9260   14.3300   -4.9050 C   0  0  0  0  0  0  0  0  0  0  0  0
   -1.1250   14.7560   -2.5760 N   0  0  0  0  0  0  0  0  0  0  0  0
   -2.7810    9.5880   -6.2950 C   0  0  0  0  0  0  0  0  0  0  0  0
   -2.2960   14.6020   -3.4590 C   0  0  0  0  0  0  0  0  0  0  0  0
   -1.2940   14.7660   -1.2060 C   0  0  0  0  0  0  0  0  0  0  0  0
   -0.2500   14.5990   -0.3140 N   0  0  0  0  0  0  0  0  0  0  0  0
   -2.4910   14.9640   -0.6640 C   0  0  0  0  0  0  0  0  0  0  0  0
   -0.4620   14.5710    1.0380 C   0  0  0  0  0  0  0  0  0  0  0  0
   -2.6380   14.9830    0.8010 C   0  0  0  0  0  0  0  0  0  0  0  0
   -3.8090   15.2110   -1.1420 C   0  0  0  0  0  0  0  0  0  0  0  0
   -1.5890   14.7360    1.6390 N   0  0  0  0  0  0  0  0  0  0  0  0
   -3.8560   15.2580    1.1580 N   0  0  0  0  0  0  0  0  0  0  0  0
   -4.5440   15.3880   -0.0400 C   0  0  0  0  0  0  0  0  0  0  0  0
  1  2  1  0
  2  3  2  0
  2  4  1  0
  4  5  1  6
  4  6  1  0
  5  7  1  0
  6  8  1  6
  6  9  1  0
  9  8  1  6
  7 10  2  0
  7 11  1  0
  9 12  1  0
  9 13  1  0
 10 14  1  0
 11 15  2  0
 12 16  1  0
 13 17  1  0
 14 18  2  0
 15 18  1  0
 16 19  1  0
 17 19  1  0
 17 20  1  0
 20 21  1  0
 20 22  2  0
 21 23  1  0
 22 24  1  0
 22 25  1  0
 23 26  2  0
 24 26  1  0
 24 27  2  0
 25 28  2  0
 27 28  1  0
M  END
