mac-x0387-mac-x0206
     RDKit          3D

 20 22  0  0  0  0  0  0  0  0999 V2000
   -3.7280   15.0820    1.6830 N   0  0  0  0  0  0  0  0  0  0  0  0
   -2.5150   14.8150    1.0800 C   0  0  0  0  0  0  0  0  0  0  0  0
   -1.5190   14.5950    1.9400 N   0  0  0  0  0  0  0  0  0  0  0  0
   -2.3570   14.7870   -0.3300 C   0  0  0  0  0  0  0  0  0  0  0  0
   -1.0380   14.5270   -0.7860 C   0  0  0  0  0  0  0  0  0  0  0  0
   -0.3040   14.3560    1.4620 C   0  0  0  0  0  0  0  0  0  0  0  0
   -3.3260   14.9850   -1.3630 C   0  0  0  0  0  0  0  0  0  0  0  0
   -0.0130   14.3160    0.1220 C   0  0  0  0  0  0  0  0  0  0  0  0
   -0.7310   14.4790   -2.1580 C   0  0  0  0  0  0  0  0  0  0  0  0
   -2.9950   14.9310   -2.7250 C   0  0  0  0  0  0  0  0  0  0  0  0
   -4.7540   15.2650   -1.2440 C   0  0  0  0  0  0  0  0  0  0  0  0
   -1.7020   14.6800   -3.1220 C   0  0  0  0  0  0  0  0  0  0  0  0
   -5.2250   15.7160   -2.2700 O   0  0  0  0  0  0  0  0  0  0  0  0
   -5.7200   15.0290   -0.1350 C   0  0  0  0  0  0  0  0  0  0  0  0
   -7.0140   14.7420   -0.5730 C   0  0  0  0  0  0  0  0  0  0  0  0
   -5.4840   15.0720    1.2490 C   0  0  0  0  0  0  0  0  0  0  0  0
   -7.3270   14.6810   -1.8990 O   0  0  0  0  0  0  0  0  0  0  0  0
   -8.0570   14.5050    0.3110 C   0  0  0  0  0  0  0  0  0  0  0  0
   -6.5480   14.8320    2.1410 C   0  0  0  0  0  0  0  0  0  0  0  0
   -7.8230   14.5510    1.6720 C   0  0  0  0  0  0  0  0  0  0  0  0
  1  2  1  0
  2  3  2  0
  2  4  1  0
  4  5  2  0
  3  6  1  0
  4  7  1  0
  5  8  1  0
  6  8  2  0
  5  9  1  0
  7 10  2  0
  7 11  1  0
  9 12  2  0
 10 12  1  0
 11 13  2  0
 11 14  1  0
 14 15  2  0
 14 16  1  0
 15 17  1  0
 15 18  1  0
 16 19  2  0
 18 20  2  0
 19 20  1  0
M  END
