mac-x0161-diamond-x0685_1_A
     RDKit          3D

 30 33  0  0  0  0  0  0  0  0999 V2000
   -4.5680   15.4580    1.7820 N   0  0  0  0  0  0  0  0  0  0  0  0
   -3.8820   14.9250    0.6240 C   0  0  2  0  0  0  0  0  0  0  0  0
   -2.4010   15.3550    0.5870 C   0  0  2  0  0  0  0  0  0  0  0  0
   -4.5760   15.5260   -0.4920 N   0  0  0  0  0  0  0  0  0  0  0  0
   -3.9430   15.3180   -1.7950 C   0  0  0  0  0  0  0  0  0  0  0  0
   -1.8370   15.0970   -0.7950 C   0  0  1  0  0  0  0  0  0  0  0  0
   -1.4170   14.6390    1.4200 N   0  0  0  0  0  0  0  0  0  0  0  0
   -2.5420   15.7690   -1.8770 N   0  0  0  0  0  0  0  0  0  0  0  0
   -0.4500   15.4530   -0.5850 N   0  0  0  0  0  0  0  0  0  0  0  0
   -0.1520   14.8060    0.6860 C   0  0  0  0  0  0  0  0  0  0  0  0
   -2.0400   15.6110   -3.2570 C   0  0  0  0  0  0  0  0  0  0  0  0
   -2.0420   14.1770   -3.6610 C   0  0  0  0  0  0  0  0  0  0  0  0
   -1.6280   13.4740   -4.7650 C   0  0  0  0  0  0  0  0  0  0  0  0
   -2.5630   13.3080   -2.7570 O   0  0  0  0  0  0  0  0  0  0  0  0
   -2.4930   12.0290   -3.2470 N   0  0  0  0  0  0  0  0  0  0  0  0
   -1.9250   12.1220   -4.4480 C   0  0  0  0  0  0  0  0  0  0  0  0
   -1.6730   10.8590   -5.2260 C   0  0  2  0  0  0  0  0  0  0  0  0
   -2.3160    9.6310   -4.5330 C   0  0  0  0  0  0  0  0  0  0  0  0
   -0.1490   10.7160   -5.1220 C   0  0  0  0  0  0  0  0  0  0  0  0
   -2.0730   10.7780   -6.7540 C   0  0  0  0  0  0  0  0  0  0  0  0
    0.5740   11.9940   -4.6470 C   0  0  0  0  0  0  0  0  0  0  0  0
   -1.9320    9.3310   -7.3140 C   0  0  0  0  0  0  0  0  0  0  0  0
   -1.3370   11.7470   -7.6890 C   0  0  0  0  0  0  0  0  0  0  0  0
    0.9830   11.9420   -2.9090 S   0  0  0  0  0  0  0  0  0  0  0  0
   -0.4880    8.8650   -7.5490 C   0  0  0  0  0  0  0  0  0  0  0  0
   -0.6080   11.0220   -8.8290 C   0  0  0  0  0  0  0  0  0  0  0  0
    2.5570   12.2200   -2.8360 O   0  0  0  0  0  0  0  0  0  0  0  0
    0.5530   10.4990   -2.3340 O   0  0  0  0  0  0  0  0  0  0  0  0
    0.2090   13.1100   -2.1550 O   0  0  0  0  0  0  0  0  0  0  0  0
    0.2940    9.8790   -8.3610 C   0  0  0  0  0  0  0  0  0  0  0  0
  2  1  1  1
  2  3  1  0
  2  4  1  0
  4  5  1  0
  3  6  1  0
  3  7  1  1
  5  8  1  0
  6  8  1  0
  6  9  1  1
  7 10  1  0
  9 10  1  0
  8 11  1  0
 11 12  1  0
 12 13  2  0
 12 14  1  0
 14 15  1  0
 13 16  1  0
 15 16  2  0
 16 17  1  0
 17 18  1  1
 17 19  1  0
 17 20  1  0
 19 21  1  0
 20 22  1  0
 20 23  1  0
 21 24  1  0
 22 25  1  0
 23 26  1  0
 24 27  1  0
 24 28  1  0
 24 29  1  0
 25 30  1  0
 26 30  1  0
M  END
