mac-x0373-mac-x0228
     RDKit          3D

 21 23  0  0  0  0  0  0  0  0999 V2000
    0.3030   13.2440   -1.4010 O   0  0  0  0  0  0  0  0  0  0  0  0
   -0.0770   14.3300   -2.1040 C   0  0  0  0  0  0  0  0  0  0  0  0
    0.6970   15.2750   -2.1520 O   0  0  0  0  0  0  0  0  0  0  0  0
   -1.4700   14.2850   -2.7960 C   0  0  1  0  0  0  0  0  0  0  0  0
   -1.4510   15.4170   -3.7190 O   0  0  0  0  0  0  0  0  0  0  0  0
   -1.6700   13.0320   -3.6380 C   0  0  0  0  0  0  0  0  0  0  0  0
   -2.6880   14.4410   -1.8200 C   0  0  2  0  0  0  0  0  0  0  0  0
   -1.0200   12.8410   -4.8660 C   0  0  0  0  0  0  0  0  0  0  0  0
   -2.5380   12.0260   -3.1780 C   0  0  0  0  0  0  0  0  0  0  0  0
   -3.6550   15.5990   -1.9910 C   0  0  0  0  0  0  0  0  0  0  0  0
   -2.3450   14.3170   -0.3460 C   0  0  0  0  0  0  0  0  0  0  0  0
   -1.2360   11.6780   -5.6080 C   0  0  0  0  0  0  0  0  0  0  0  0
   -2.7550   10.8670   -3.9160 C   0  0  0  0  0  0  0  0  0  0  0  0
   -4.6270   15.7920   -1.0740 C   0  0  0  0  0  0  0  0  0  0  0  0
   -3.3160   14.4900    0.5490 C   0  0  0  0  0  0  0  0  0  0  0  0
   -2.1020   10.6950   -5.1340 C   0  0  0  0  0  0  0  0  0  0  0  0
   -4.7100   14.8150    0.0630 C   0  0  2  0  0  0  0  0  0  0  0  0
   -5.5360   13.6520   -0.5250 C   0  0  0  0  0  0  0  0  0  0  0  0
   -5.6270   15.0780    1.2010 C   0  0  0  0  0  0  0  0  0  0  0  0
   -6.9270   14.0330   -0.3430 O   0  0  0  0  0  0  0  0  0  0  0  0
   -6.8380   14.6100    0.8940 C   0  0  0  0  0  0  0  0  0  0  0  0
  1  2  1  0
  2  3  2  0
  2  4  1  0
  4  5  1  6
  4  6  1  0
  4  7  1  0
  6  8  2  0
  6  9  1  0
  7 10  1  1
  7 11  1  0
  8 12  1  0
  9 13  2  0
 10 14  2  0
 11 15  2  0
 12 16  2  0
 13 16  1  0
 17 14  1  6
 15 17  1  0
 17 18  1  0
 17 19  1  0
 18 20  1  0
 19 21  2  0
 20 21  1  0
M  END
