mac-x0231-diamond-x0962_3_A
     RDKit          3D

 24 26  0  0  0  0  0  0  0  0999 V2000
    0.4630   10.4880   -2.3800 O   0  0  0  0  0  0  0  0  0  0  0  0
    0.7680   11.8030   -2.4840 C   0  0  0  0  0  0  0  0  0  0  0  0
    0.7270   12.4840   -1.4700 O   0  0  0  0  0  0  0  0  0  0  0  0
    1.1180   12.2690   -3.8800 C   0  0  2  0  0  0  0  0  0  0  0  0
    2.5260   11.9980   -4.3350 C   0  0  0  0  0  0  0  0  0  0  0  0
    0.8840   13.7640   -4.1490 C   0  0  0  0  0  0  0  0  0  0  0  0
    2.5670   12.4710   -5.7670 C   0  0  0  0  0  0  0  0  0  0  0  0
   -0.4570   14.1810   -4.6060 C   0  0  0  0  0  0  0  0  0  0  0  0
    1.8690   14.6180   -3.9830 N   0  0  0  0  0  0  0  0  0  0  0  0
    1.6870   11.7620   -6.7160 C   0  0  0  0  0  0  0  0  0  0  0  0
   -0.6850   15.5410   -4.7800 C   0  0  0  0  0  0  0  0  0  0  0  0
    1.6390   15.9370   -4.2400 N   0  0  0  0  0  0  0  0  0  0  0  0
   -1.4850   13.2660   -4.8590 C   0  0  0  0  0  0  0  0  0  0  0  0
    0.9200   11.1330   -7.3850 C   0  0  0  0  0  0  0  0  0  0  0  0
    0.4100   16.4930   -4.5200 C   0  0  0  0  0  0  0  0  0  0  0  0
   -1.9420   16.0000   -5.1980 C   0  0  0  0  0  0  0  0  0  0  0  0
   -2.7340   13.7200   -5.2790 C   0  0  0  0  0  0  0  0  0  0  0  0
    0.2210   17.7060   -4.5600 O   0  0  0  0  0  0  0  0  0  0  0  0
   -2.9690   15.0850   -5.4470 C   0  0  0  0  0  0  0  0  0  0  0  0
   -0.0350   10.2370   -7.8980 C   0  0  0  0  0  0  0  0  0  0  0  0
    0.1600    9.2250   -8.7990 N   0  0  0  0  0  0  0  0  0  0  0  0
   -1.3630   10.1710   -7.5600 C   0  0  0  0  0  0  0  0  0  0  0  0
   -1.0410    8.5930   -8.9580 C   0  0  0  0  0  0  0  0  0  0  0  0
   -1.9810    9.1450   -8.2190 N   0  0  0  0  0  0  0  0  0  0  0  0
  1  2  1  0
  2  3  2  0
  2  4  1  0
  4  5  1  1
  4  6  1  0
  5  7  1  0
  6  8  1  0
  6  9  2  0
  7 10  1  0
  8 11  2  0
  9 12  1  0
  8 13  1  0
 10 14  3  0
 11 15  1  0
 12 15  1  0
 11 16  1  0
 13 17  2  0
 15 18  2  0
 16 19  2  0
 17 19  1  0
 14 20  1  0
 20 21  1  0
 20 22  2  0
 21 23  1  0
 22 24  1  0
 23 24  2  0
M  END
