mac-x0387-mac-x0193
     RDKit          3D

 27 29  0  0  0  0  0  0  0  0999 V2000
   -3.9400   15.0690    1.6690 N   0  0  0  0  0  0  0  0  0  0  0  0
   -2.6710   14.8570    1.1250 C   0  0  0  0  0  0  0  0  0  0  0  0
   -1.6700   14.6420    1.9880 N   0  0  0  0  0  0  0  0  0  0  0  0
   -2.4930   14.8870   -0.2630 C   0  0  0  0  0  0  0  0  0  0  0  0
   -1.1850   14.7050   -0.7570 C   0  0  0  0  0  0  0  0  0  0  0  0
   -0.4390   14.4640    1.4990 C   0  0  0  0  0  0  0  0  0  0  0  0
   -3.5540   15.0980   -1.1740 C   0  0  0  0  0  0  0  0  0  0  0  0
   -0.1490   14.4920    0.1600 C   0  0  0  0  0  0  0  0  0  0  0  0
   -0.9650   14.7490   -2.1460 C   0  0  0  0  0  0  0  0  0  0  0  0
   -3.3350   15.1270   -2.5460 C   0  0  0  0  0  0  0  0  0  0  0  0
    0.4220   14.5910   -2.7090 C   0  0  0  0  0  0  0  0  0  0  0  0
   -2.0430   14.9530   -3.0350 C   0  0  0  0  0  0  0  0  0  0  0  0
    1.2390   13.5090   -2.0020 C   0  0  0  0  0  0  0  0  0  0  0  0
    1.6870   12.7310   -3.1280 N   0  0  0  0  0  0  0  0  0  0  0  0
    1.0200   11.7030   -3.4470 C   0  0  0  0  0  0  0  0  0  0  0  0
   -0.0200   11.3400   -2.6850 O   0  0  0  0  0  0  0  0  0  0  0  0
    1.2550   10.8170   -4.6120 C   0  0  0  0  0  0  0  0  0  0  0  0
    0.4300   11.2020   -5.7230 N   0  0  0  0  0  0  0  0  0  0  0  0
    1.0590   11.1570   -6.9250 C   0  0  0  0  0  0  0  0  0  0  0  0
    2.1320   11.6800   -7.1270 O   0  0  0  0  0  0  0  0  0  0  0  0
    0.3500   10.4390   -7.8490 N   0  0  0  0  0  0  0  0  0  0  0  0
    1.0280    9.9820   -9.0490 C   0  0  0  0  0  0  0  0  0  0  0  0
    1.5850    8.5650   -8.8400 C   0  0  0  0  0  0  0  0  0  0  0  0
    0.0960   10.0310  -10.2620 C   0  0  0  0  0  0  0  0  0  0  0  0
    2.2580    7.9840  -10.0850 C   0  0  0  0  0  0  0  0  0  0  0  0
    0.7570    9.4380  -11.5050 C   0  0  0  0  0  0  0  0  0  0  0  0
    1.3380    8.0400  -11.2940 C   0  0  0  0  0  0  0  0  0  0  0  0
  1  2  1  0
  2  3  2  0
  2  4  1  0
  4  5  2  0
  3  6  1  0
  4  7  1  0
  5  8  1  0
  6  8  2  0
  5  9  1  0
  7 10  2  0
  9 11  1  0
  9 12  2  0
 10 12  1  0
 11 13  1  0
 13 14  1  0
 14 15  2  3
 15 16  1  0
 15 17  1  0
 17 18  1  0
 18 19  1  0
 19 20  2  0
 19 21  1  0
 21 22  1  0
 22 23  1  0
 22 24  1  0
 23 25  1  0
 24 26  1  0
 25 27  1  0
 26 27  1  0
M  END
