mac-x0116-mac-x0223
     RDKit          3D

 30 33  0  0  0  0  0  0  0  0999 V2000
   -6.0730   14.6780    1.4830 C   0  0  0  0  0  0  0  0  0  0  0  0
   -4.6920   15.1740    1.6060 N   0  0  0  0  0  0  0  0  0  0  0  0
   -3.9070   15.0470    0.4630 C   0  0  0  0  0  0  0  0  0  0  0  0
   -6.3420   13.1970    1.5160 C   0  0  0  0  0  0  0  0  0  0  0  0
   -6.2010   12.5170    0.3410 O   0  0  0  0  0  0  0  0  0  0  0  0
   -6.7270   12.3150    2.5130 C   0  0  0  0  0  0  0  0  0  0  0  0
   -6.8180   11.0410    1.9190 C   0  0  0  0  0  0  0  0  0  0  0  0
   -6.4920   11.2160    0.6000 C   0  0  0  0  0  0  0  0  0  0  0  0
   -4.4670   15.1850   -0.7650 N   0  0  0  0  0  0  0  0  0  0  0  0
   -2.5280   14.7740    0.5500 C   0  0  0  0  0  0  0  0  0  0  0  0
   -3.6820   15.0480   -1.8470 C   0  0  0  0  0  0  0  0  0  0  0  0
   -1.8530   14.6600   -0.6500 C   0  0  0  0  0  0  0  0  0  0  0  0
   -1.6690   14.5840    1.6220 N   0  0  0  0  0  0  0  0  0  0  0  0
   -2.3640   14.7830   -1.8850 N   0  0  0  0  0  0  0  0  0  0  0  0
   -0.5610   14.3940   -0.2990 N   0  0  0  0  0  0  0  0  0  0  0  0
   -0.4940   14.3630    1.0690 C   0  0  0  0  0  0  0  0  0  0  0  0
    0.5020   14.1820   -1.2560 C   0  0  0  0  0  0  0  0  0  0  0  0
   -0.1410   13.4610   -2.3170 O   0  0  0  0  0  0  0  0  0  0  0  0
    0.5260   12.6200   -3.1430 C   0  0  0  0  0  0  0  0  0  0  0  0
    0.8190   13.3290   -4.4450 C   0  0  0  0  0  0  0  0  0  0  0  0
    0.8030   11.4630   -2.8710 O   0  0  0  0  0  0  0  0  0  0  0  0
   -0.0340   14.5710   -4.5780 C   0  0  0  0  0  0  0  0  0  0  0  0
   -1.4410   14.4770   -4.6190 C   0  0  0  0  0  0  0  0  0  0  0  0
    0.5730   15.8340   -4.6540 C   0  0  0  0  0  0  0  0  0  0  0  0
   -0.2160   16.9770   -4.7630 C   0  0  0  0  0  0  0  0  0  0  0  0
   -2.2260   15.6330   -4.7300 C   0  0  0  0  0  0  0  0  0  0  0  0
    0.2190   18.2580   -4.8410 O   0  0  0  0  0  0  0  0  0  0  0  0
   -1.5930   16.8630   -4.7980 C   0  0  0  0  0  0  0  0  0  0  0  0
    1.2340   18.4460   -5.7980 C   0  0  0  0  0  0  0  0  0  0  0  0
   -2.3230   18.0170   -4.8960 O   0  0  0  0  0  0  0  0  0  0  0  0
  1  2  1  0
  2  3  1  0
  1  4  1  0
  4  5  1  0
  4  6  2  0
  6  7  1  0
  5  8  1  0
  7  8  2  0
  3  9  2  0
  3 10  1  0
  9 11  1  0
 10 12  2  0
 10 13  1  0
 11 14  2  0
 12 14  1  0
 12 15  1  0
 13 16  2  0
 15 16  1  0
 15 17  1  0
 17 18  1  0
 18 19  1  0
 19 20  1  0
 19 21  2  0
 20 22  1  0
 22 23  2  0
 22 24  1  0
 24 25  2  0
 23 26  1  0
 25 27  1  0
 25 28  1  0
 26 28  2  0
 27 29  1  0
 28 30  1  0
M  END
