mac-x0358-mac-x0411
     RDKit          3D

 18 20  0  0  0  0  0  0  0  0999 V2000
    1.7960   13.2730   -3.4090 O   0  0  0  0  0  0  0  0  0  0  0  0
    1.0170   12.1840   -3.5230 C   0  0  0  0  0  0  0  0  0  0  0  0
    1.0500   11.3570   -2.6410 O   0  0  0  0  0  0  0  0  0  0  0  0
    0.1110   12.1070   -4.7580 C   0  0  2  0  0  0  0  0  0  0  0  0
    0.4340   11.4280   -6.0080 O   0  0  0  0  0  0  0  0  0  0  0  0
   -0.8780   13.2020   -4.9330 C   0  0  0  0  0  0  0  0  0  0  0  0
   -1.9870   12.7320   -5.5950 C   0  0  0  0  0  0  0  0  0  0  0  0
   -0.7790   14.5430   -4.5150 C   0  0  0  0  0  0  0  0  0  0  0  0
   -0.7260   10.6950   -6.2750 C   0  0  0  0  0  0  0  0  0  0  0  0
   -3.0430   13.6030   -5.8420 C   0  0  0  0  0  0  0  0  0  0  0  0
   -1.8460   15.4060   -4.7750 C   0  0  0  0  0  0  0  0  0  0  0  0
   -1.9750   11.3240   -6.0260 C   0  0  0  0  0  0  0  0  0  0  0  0
   -0.7250    9.3560   -6.7770 C   0  0  0  0  0  0  0  0  0  0  0  0
    0.6530    8.4230   -7.2240 Cl  0  0  0  0  0  0  0  0  0  0  0  0
   -2.9790   14.9340   -5.4360 C   0  0  0  0  0  0  0  0  0  0  0  0
   -3.1550   10.6010   -6.2210 C   0  0  0  0  0  0  0  0  0  0  0  0
   -1.9250    8.6800   -6.9580 C   0  0  0  0  0  0  0  0  0  0  0  0
   -3.1310    9.2900   -6.6710 C   0  0  0  0  0  0  0  0  0  0  0  0
  1  2  1  0
  2  3  2  0
  4  2  1  6
  4  5  1  0
  4  6  1  0
  6  7  2  0
  6  8  1  0
  5  9  1  0
  7 10  1  0
  8 11  2  0
  7 12  1  0
  9 12  2  0
  9 13  1  0
 13 14  1  0
 10 15  2  0
 11 15  1  0
 12 16  1  0
 13 17  2  0
 16 18  2  0
 17 18  1  0
M  END
