mac-x0436-diamond-x0685_0_A
     RDKit          3D

 29 31  0  0  0  0  0  0  0  0999 V2000
    0.7110   11.1520   -2.9780 O   0  0  0  0  0  0  0  0  0  0  0  0
    1.2320   12.3940   -2.9400 C   0  0  0  0  0  0  0  0  0  0  0  0
    1.3240   13.0150   -1.8990 O   0  0  0  0  0  0  0  0  0  0  0  0
    1.6940   12.9400   -4.2790 C   0  0  0  0  0  0  0  0  0  0  0  0
    0.5630   13.1920   -5.2690 C   0  0  0  0  0  0  0  0  0  0  0  0
   -0.2660   11.9680   -5.6620 C   0  0  0  0  0  0  0  0  0  0  0  0
   -1.6720   11.7640   -5.0500 C   0  0  0  0  0  0  0  0  0  0  0  0
    0.2180   11.1090   -6.5120 N   0  0  0  0  0  0  0  0  0  0  0  0
   -2.2580   12.8260   -4.6260 N   0  0  0  0  0  0  0  0  0  0  0  0
   -2.1300   10.4660   -5.0540 N   0  0  0  0  0  0  0  0  0  0  0  0
   -0.5710    9.9900   -6.8500 C   0  0  0  0  0  0  0  0  0  0  0  0
   -1.6000   14.1310   -4.7560 C   0  0  0  0  0  0  0  0  0  0  0  0
   -1.7380    9.6570   -6.1370 C   0  0  0  0  0  0  0  0  0  0  0  0
   -0.1660    9.2010   -7.9260 C   0  0  0  0  0  0  0  0  0  0  0  0
   -2.6030   15.2750   -4.6720 C   0  0  0  0  0  0  0  0  0  0  0  0
   -0.9150    8.0830   -8.2980 C   0  0  0  0  0  0  0  0  0  0  0  0
   -2.4840    8.5340   -6.5130 C   0  0  0  0  0  0  0  0  0  0  0  0
   -3.1920   15.2670   -3.3430 C   0  0  0  0  0  0  0  0  0  0  0  0
   -2.0720    7.7510   -7.5910 C   0  0  0  0  0  0  0  0  0  0  0  0
   -3.6300   15.1780   -2.2470 C   0  0  0  0  0  0  0  0  0  0  0  0
   -4.2690   15.1350   -0.9940 C   0  0  0  0  0  0  0  0  0  0  0  0
   -3.5670   15.2650    0.1930 C   0  0  0  0  0  0  0  0  0  0  0  0
   -5.6330   14.9630   -0.9410 C   0  0  0  0  0  0  0  0  0  0  0  0
   -4.2760   15.2280    1.3830 C   0  0  0  0  0  0  0  0  0  0  0  0
   -6.3380   14.9190    0.1990 N   0  0  0  0  0  0  0  0  0  0  0  0
   -5.6640   15.0580    1.3490 C   0  0  0  0  0  0  0  0  0  0  0  0
   -6.3520   15.0540    2.5640 N   0  0  0  0  0  0  0  0  0  0  0  0
   -7.7470   14.6590    2.5800 C   0  0  0  0  0  0  0  0  0  0  0  0
   -7.8870   13.2340    3.0910 C   0  0  0  0  0  0  0  0  0  0  0  0
  1  2  1  0
  2  3  2  0
  2  4  1  0
  4  5  1  0
  5  6  1  0
  6  7  1  0
  6  8  2  0
  7  9  2  3
  7 10  1  0
  8 11  1  0
  9 12  1  0
 10 13  1  0
 11 13  2  0
 11 14  1  0
 12 15  1  0
 14 16  2  0
 13 17  1  0
 15 18  1  0
 16 19  1  0
 17 19  2  0
 18 20  3  0
 20 21  1  0
 21 22  2  0
 21 23  1  0
 22 24  1  0
 23 25  2  0
 24 26  2  0
 25 26  1  0
 26 27  1  0
 27 28  1  0
 28 29  1  0
M  END
