mac-x0159-mac-x0396
     RDKit          3D

 25 28  0  0  0  0  0  0  0  0999 V2000
   -3.9790   15.6760    0.4600 N   0  0  0  0  0  0  0  0  0  0  0  0
   -4.5800   14.5890    0.0220 C   0  0  0  0  0  0  0  0  0  0  0  0
   -3.9650   13.6350   -0.4270 O   0  0  0  0  0  0  0  0  0  0  0  0
   -2.8880   15.7910   -0.3610 C   0  0  2  0  0  0  0  0  0  0  0  0
   -3.5540   15.5630   -1.6310 N   0  0  0  0  0  0  0  0  0  0  0  0
   -1.8840   14.7540    0.0870 C   0  0  1  0  0  0  0  0  0  0  0  0
   -5.9980   14.6160    0.0330 C   0  0  0  0  0  0  0  0  0  0  0  0
   -2.7470   14.8300   -2.5730 C   0  0  0  0  0  0  0  0  0  0  0  0
   -0.9570   14.4310   -1.0810 C   0  0  1  0  0  0  0  0  0  0  0  0
   -1.0640   15.3040    1.1410 N   0  0  0  0  0  0  0  0  0  0  0  0
   -6.7250   14.8080   -1.1150 C   0  0  0  0  0  0  0  0  0  0  0  0
   -6.6380   14.4460    1.2440 C   0  0  0  0  0  0  0  0  0  0  0  0
   -1.3550   15.1180   -2.3040 N   0  0  0  0  0  0  0  0  0  0  0  0
    0.3470   14.8790   -0.6330 N   0  0  0  0  0  0  0  0  0  0  0  0
    0.2370   14.8620    0.8110 C   0  0  0  0  0  0  0  0  0  0  0  0
   -8.0680   14.8340   -1.1250 N   0  0  0  0  0  0  0  0  0  0  0  0
   -8.0140   14.4720    1.2670 C   0  0  0  0  0  0  0  0  0  0  0  0
   -0.5250   14.7320   -3.4400 C   0  0  0  0  0  0  0  0  0  0  0  0
   -8.6770   14.6670    0.0700 C   0  0  0  0  0  0  0  0  0  0  0  0
   -0.2130   15.9720   -4.2170 C   0  0  0  0  0  0  0  0  0  0  0  0
    1.0260   16.5530   -4.3380 C   0  0  0  0  0  0  0  0  0  0  0  0
   -1.2360   16.6330   -4.8920 N   0  0  0  0  0  0  0  0  0  0  0  0
   -0.7530   17.6940   -5.5040 C   0  0  0  0  0  0  0  0  0  0  0  0
    0.9270   17.9560   -5.3120 S   0  0  0  0  0  0  0  0  0  0  0  0
   -1.5560   18.6380   -6.3240 C   0  0  0  0  0  0  0  0  0  0  0  0
  1  2  1  0
  2  3  2  0
  4  1  1  1
  4  5  1  0
  4  6  1  0
  2  7  1  0
  5  8  1  0
  6  9  1  0
  6 10  1  1
  7 11  2  0
  7 12  1  0
  8 13  1  0
  9 13  1  0
  9 14  1  1
 10 15  1  0
 14 15  1  0
 11 16  1  0
 12 17  2  0
 13 18  1  0
 16 19  2  0
 17 19  1  0
 18 20  1  0
 20 21  2  0
 20 22  1  0
 22 23  2  0
 21 24  1  0
 23 24  1  0
 23 25  1  0
M  END
