mac-x0231-diamond-x0592_0_A
     RDKit          3D

 27 29  0  0  0  0  0  0  0  0999 V2000
    1.0420   10.7180   -3.3100 O   0  0  0  0  0  0  0  0  0  0  0  0
    1.5930   11.9420   -3.3610 C   0  0  0  0  0  0  0  0  0  0  0  0
    1.7440   12.6020   -2.3440 O   0  0  0  0  0  0  0  0  0  0  0  0
    1.9480   12.4840   -4.7350 C   0  0  0  0  0  0  0  0  0  0  0  0
    1.3140   13.8370   -4.6890 C   0  0  0  0  0  0  0  0  0  0  0  0
   -0.1510   13.8840   -4.6640 C   0  0  0  0  0  0  0  0  0  0  0  0
    2.0960   14.8430   -4.5200 N   0  0  0  0  0  0  0  0  0  0  0  0
   -0.7150   15.0230   -4.1240 C   0  0  0  0  0  0  0  0  0  0  0  0
    1.4920   16.0210   -4.3290 N   0  0  0  0  0  0  0  0  0  0  0  0
   -0.9310   12.8100   -5.1140 C   0  0  0  0  0  0  0  0  0  0  0  0
    0.2280   16.1480   -3.7860 C   0  0  0  0  0  0  0  0  0  0  0  0
   -2.1100   15.0150   -3.9320 C   0  0  0  0  0  0  0  0  0  0  0  0
   -2.3120   12.8540   -4.9900 C   0  0  0  0  0  0  0  0  0  0  0  0
   -0.0510   17.1560   -3.1660 O   0  0  0  0  0  0  0  0  0  0  0  0
   -2.8250   16.0850   -3.2200 C   0  0  0  0  0  0  0  0  0  0  0  0
   -2.8910   13.9470   -4.3840 C   0  0  0  0  0  0  0  0  0  0  0  0
   -2.5760   15.8160   -1.7530 N   0  0  0  0  0  0  0  0  0  0  0  0
   -3.3360   15.4570   -0.7340 C   0  0  0  0  0  0  0  0  0  0  0  0
   -2.7770   15.2790    0.5100 N   0  0  0  0  0  0  0  0  0  0  0  0
   -4.7630   15.2020   -0.6760 C   0  0  0  0  0  0  0  0  0  0  0  0
   -5.7280   15.2100   -1.6990 C   0  0  0  0  0  0  0  0  0  0  0  0
   -5.5080   14.8860    0.4640 C   0  0  0  0  0  0  0  0  0  0  0  0
   -6.9600   14.9330   -1.2680 N   0  0  0  0  0  0  0  0  0  0  0  0
   -6.8070   14.7420    0.0510 N   0  0  0  0  0  0  0  0  0  0  0  0
   -7.9860   14.4240    0.8500 C   0  0  0  0  0  0  0  0  0  0  0  0
   -7.6580   13.9800    2.2670 C   0  0  0  0  0  0  0  0  0  0  0  0
   -7.0270   15.0130    3.0170 O   0  0  0  0  0  0  0  0  0  0  0  0
  1  2  1  0
  2  3  2  0
  2  4  1  0
  4  5  1  0
  5  6  1  0
  5  7  2  0
  6  8  2  0
  7  9  1  0
  6 10  1  0
  8 11  1  0
  9 11  1  0
  8 12  1  0
 10 13  2  0
 11 14  2  0
 12 15  1  0
 12 16  2  0
 13 16  1  0
 15 17  1  0
 17 18  2  3
 18 19  1  0
 18 20  1  0
 20 21  1  0
 20 22  2  0
 21 23  2  0
 22 24  1  0
 23 24  1  0
 24 25  1  0
 25 26  1  0
 26 27  1  0
M  END
