mac-x0163-diamond-x1012_0_A
     RDKit          3D

 23 25  0  0  0  0  0  0  0  0999 V2000
   -4.0930   15.3840   -1.2620 Cl  0  0  0  0  0  0  0  0  0  0  0  0
   -2.6820   14.9880   -0.3390 C   0  0  0  0  0  0  0  0  0  0  0  0
   -2.7620   14.9440    1.0280 C   0  0  0  0  0  0  0  0  0  0  0  0
   -1.4390   14.7150   -0.9030 C   0  0  0  0  0  0  0  0  0  0  0  0
   -3.9670   15.2330    1.6680 N   0  0  0  0  0  0  0  0  0  0  0  0
   -0.3670   14.4090   -0.1430 N   0  0  0  0  0  0  0  0  0  0  0  0
   -1.7150   14.6370    1.8100 N   0  0  0  0  0  0  0  0  0  0  0  0
   -1.2630   14.7610   -2.2680 N   0  0  0  0  0  0  0  0  0  0  0  0
   -0.5630   14.3840    1.1820 C   0  0  0  0  0  0  0  0  0  0  0  0
   -2.4360   14.4540   -3.1600 C   0  0  0  0  0  0  0  0  0  0  0  0
    0.0380   15.2880   -2.8290 C   0  0  0  0  0  0  0  0  0  0  0  0
   -1.9800   13.5670   -4.3400 C   0  0  0  0  0  0  0  0  0  0  0  0
   -0.0110   15.1450   -4.3310 C   0  0  2  0  0  0  0  0  0  0  0  0
   -0.9020   16.3530   -4.8060 C   0  0  0  0  0  0  0  0  0  0  0  0
   -2.6620   12.1590   -4.4040 C   0  0  0  0  0  0  0  0  0  0  0  0
   -2.6370   13.8540   -5.7330 C   0  0  0  0  0  0  0  0  0  0  0  0
   -0.4870   13.6910   -4.1880 C   0  0  1  0  0  0  0  0  0  0  0  0
   -0.3170   17.5870   -4.7240 N   0  0  0  0  0  0  0  0  0  0  0  0
   -2.0660   16.3150   -5.2100 O   0  0  0  0  0  0  0  0  0  0  0  0
    0.4510   12.5510   -3.7950 C   0  0  0  0  0  0  0  0  0  0  0  0
   -3.6800   12.7660   -5.3930 C   0  0  0  0  0  0  0  0  0  0  0  0
    0.0710   11.3270   -4.2100 O   0  0  0  0  0  0  0  0  0  0  0  0
    1.4600   12.6790   -3.1050 O   0  0  0  0  0  0  0  0  0  0  0  0
  1  2  1  0
  2  3  2  0
  2  4  1  0
  3  5  1  0
  4  6  2  0
  3  7  1  0
  4  8  1  0
  6  9  1  0
  7  9  2  0
  8 10  1  0
  8 11  1  0
 12 10  1  0
 11 13  1  0
 13 14  1  1
 12 15  1  0
 12 16  1  0
 12 17  1  0
 13 17  1  0
 14 18  1  0
 14 19  2  0
 17 20  1  1
 15 21  1  0
 16 21  1  0
 20 22  1  0
 20 23  2  0
M  END
