mac-x0115-mac-x0417
     RDKit          3D

 29 32  0  0  0  0  0  0  0  0999 V2000
   -1.4830   17.9560   -5.3090 C   0  0  0  0  0  0  0  0  0  0  0  0
   -0.1770   17.1620   -5.3490 C   0  0  0  0  0  0  0  0  0  0  0  0
    0.8870   17.9100   -4.5680 C   0  0  0  0  0  0  0  0  0  0  0  0
   -0.4300   15.8550   -4.7770 O   0  0  0  0  0  0  0  0  0  0  0  0
    0.6370   14.8630   -4.8440 C   0  0  0  0  0  0  0  0  0  0  0  0
    0.2790   13.4190   -4.2090 C   0  0  1  0  0  0  0  0  0  0  0  0
    1.6410   12.9230   -3.7270 C   0  0  0  0  0  0  0  0  0  0  0  0
   -0.2200   13.5000   -2.7000 N   0  0  0  0  0  0  0  0  0  0  0  0
    0.0550   12.2650   -5.2920 C   0  0  0  0  0  0  0  0  0  0  0  0
    2.6590   13.7660   -3.9140 O   0  0  0  0  0  0  0  0  0  0  0  0
    1.8590   11.8570   -3.1850 O   0  0  0  0  0  0  0  0  0  0  0  0
    0.8090   13.7350   -1.6740 C   0  0  0  0  0  0  0  0  0  0  0  0
   -1.4420   14.0560   -2.2700 C   0  0  0  0  0  0  0  0  0  0  0  0
    1.0420   12.1520   -6.2240 N   0  0  0  0  0  0  0  0  0  0  0  0
   -0.9310   11.2230   -5.6090 C   0  0  0  0  0  0  0  0  0  0  0  0
    2.4420   14.1260   -1.8130 S   0  0  0  0  0  0  0  0  0  0  0  0
    0.4340   13.6520   -0.3360 N   0  0  0  0  0  0  0  0  0  0  0  0
   -1.4670   14.7840   -0.9690 C   0  0  2  0  0  0  0  0  0  0  0  0
   -2.6570   14.0830   -2.8190 C   0  0  0  0  0  0  0  0  0  0  0  0
    0.7460   11.1290   -7.0970 O   0  0  0  0  0  0  0  0  0  0  0  0
   -0.4180   10.5670   -6.7440 C   0  0  0  0  0  0  0  0  0  0  0  0
   -2.1610   10.7260   -5.1270 C   0  0  0  0  0  0  0  0  0  0  0  0
   -0.7260   14.1510    0.1590 C   0  0  0  0  0  0  0  0  0  0  0  0
   -2.8820   15.1760   -0.7240 N   0  0  0  0  0  0  0  0  0  0  0  0
   -3.4650   14.7860   -1.8130 C   0  0  0  0  0  0  0  0  0  0  0  0
   -1.0110    9.4920   -7.4170 C   0  0  0  0  0  0  0  0  0  0  0  0
   -2.7870    9.6410   -5.7830 C   0  0  0  0  0  0  0  0  0  0  0  0
   -1.0480   14.0970    1.3470 O   0  0  0  0  0  0  0  0  0  0  0  0
   -2.2220    9.0360   -6.9060 C   0  0  0  0  0  0  0  0  0  0  0  0
  1  2  1  0
  2  3  1  0
  2  4  1  0
  4  5  1  0
  6  5  1  6
  6  7  1  0
  6  8  1  0
  6  9  1  0
  7 10  1  0
  7 11  2  0
  8 12  1  0
  8 13  1  0
  9 14  2  0
  9 15  1  0
 12 16  2  0
 12 17  1  0
 13 18  1  0
 13 19  2  0
 14 20  1  0
 15 21  2  0
 20 21  1  0
 15 22  1  0
 17 23  1  0
 18 23  1  0
 18 24  1  1
 19 25  1  0
 24 25  2  0
 21 26  1  0
 22 27  2  0
 23 28  2  0
 26 29  2  0
 27 29  1  0
M  END
