mac-x0161-mac-x0115
     RDKit          3D

 24 26  0  0  0  0  0  0  0  0999 V2000
   -4.0650   15.6690    0.7530 N   0  0  0  0  0  0  0  0  0  0  0  0
   -3.3770   14.8390   -0.2180 C   0  0  2  0  0  0  0  0  0  0  0  0
   -1.8890   14.6050    0.1530 C   0  0  1  0  0  0  0  0  0  0  0  0
   -3.6430   15.4760   -1.4910 N   0  0  0  0  0  0  0  0  0  0  0  0
   -2.8030   15.0500   -2.6130 C   0  0  0  0  0  0  0  0  0  0  0  0
   -0.9440   14.6150   -1.0940 C   0  0  1  0  0  0  0  0  0  0  0  0
   -1.2080   15.4890    1.0700 N   0  0  0  0  0  0  0  0  0  0  0  0
   -1.3690   15.1750   -2.3510 N   0  0  0  0  0  0  0  0  0  0  0  0
    0.3580   15.0720   -0.6110 N   0  0  0  0  0  0  0  0  0  0  0  0
    0.1480   15.0260    0.8440 C   0  0  0  0  0  0  0  0  0  0  0  0
   -0.3530   14.8090   -3.3850 C   0  0  2  0  0  0  0  0  0  0  0  0
    1.7800   14.4360   -1.2710 S   0  0  0  0  0  0  0  0  0  0  0  0
    0.0570   15.7870   -4.5290 C   0  0  0  0  0  0  0  0  0  0  0  0
   -0.3900   13.3850   -3.8080 C   0  0  0  0  0  0  0  0  0  0  0  0
   -1.0300   16.6000   -4.9750 O   0  0  0  0  0  0  0  0  0  0  0  0
   -0.8340   12.6810   -4.8990 C   0  0  0  0  0  0  0  0  0  0  0  0
    0.1540   12.5200   -2.9040 O   0  0  0  0  0  0  0  0  0  0  0  0
   -0.6210   17.7370   -5.7430 C   0  0  0  0  0  0  0  0  0  0  0  0
    0.0700   11.2350   -3.3860 N   0  0  0  0  0  0  0  0  0  0  0  0
   -0.5180   11.3500   -4.5740 C   0  0  0  0  0  0  0  0  0  0  0  0
   -0.7040   10.1970   -5.2370 O   0  0  0  0  0  0  0  0  0  0  0  0
   -1.5170   18.9260   -5.4410 C   0  0  0  0  0  0  0  0  0  0  0  0
    0.8420   18.0400   -5.4270 C   0  0  0  0  0  0  0  0  0  0  0  0
   -1.9480   10.1300   -5.9110 C   0  0  0  0  0  0  0  0  0  0  0  0
  2  1  1  1
  2  3  1  0
  2  4  1  0
  4  5  1  0
  3  6  1  0
  3  7  1  1
  5  8  1  0
  6  8  1  6
  6  9  1  0
  7 10  1  0
  9 10  1  0
  8 11  1  0
  9 12  1  0
 11 13  1  6
 11 14  1  0
 13 15  1  0
 14 16  2  0
 14 17  1  0
 15 18  1  0
 17 19  1  0
 16 20  1  0
 19 20  2  0
 20 21  1  0
 18 22  1  0
 18 23  1  0
 21 24  1  0
M  END
