mac-x0139-mac-x0373
     RDKit          3D

 23 25  0  0  0  0  0  0  0  0999 V2000
   -2.2560   15.4320   -3.5290 C   0  0  0  0  0  0  0  0  0  0  0  0
   -1.3040   14.4460   -2.7960 C   0  0  1  0  0  0  0  0  0  0  0  0
    0.1720   14.7840   -3.1650 C   0  0  0  0  0  0  0  0  0  0  0  0
   -1.5270   14.6450   -1.2410 C   0  0  0  0  0  0  0  0  0  0  0  0
   -1.6900   13.0850   -3.4440 C   0  0  0  0  0  0  0  0  0  0  0  0
    0.9990   13.7820   -3.9270 C   0  0  0  0  0  0  0  0  0  0  0  0
    0.7010   15.8370   -2.8220 O   0  0  0  0  0  0  0  0  0  0  0  0
   -2.7060   14.8680   -0.6280 C   0  0  0  0  0  0  0  0  0  0  0  0
   -0.3230   14.5940   -0.4810 N   0  0  0  0  0  0  0  0  0  0  0  0
   -1.2120   12.7680   -4.7360 C   0  0  0  0  0  0  0  0  0  0  0  0
   -2.5170   12.1330   -2.8150 C   0  0  0  0  0  0  0  0  0  0  0  0
    1.2270   12.5560   -3.1180 C   0  0  0  0  0  0  0  0  0  0  0  0
   -2.6880   15.0330    0.8570 C   0  0  0  0  0  0  0  0  0  0  0  0
   -0.3850   14.7320    0.8160 C   0  0  0  0  0  0  0  0  0  0  0  0
   -4.0800   15.0230   -0.9470 C   0  0  0  0  0  0  0  0  0  0  0  0
   -1.5340   11.5710   -5.3700 C   0  0  0  0  0  0  0  0  0  0  0  0
   -2.8410   10.9290   -3.4550 C   0  0  0  0  0  0  0  0  0  0  0  0
    1.7890   12.4910   -2.0520 O   0  0  0  0  0  0  0  0  0  0  0  0
    0.7320   11.4450   -3.6890 O   0  0  0  0  0  0  0  0  0  0  0  0
   -1.5220   14.9150    1.5200 N   0  0  0  0  0  0  0  0  0  0  0  0
   -3.8680   15.2820    1.3260 N   0  0  0  0  0  0  0  0  0  0  0  0
   -4.6880   15.2670    0.2150 C   0  0  0  0  0  0  0  0  0  0  0  0
   -2.3490   10.6500   -4.7280 C   0  0  0  0  0  0  0  0  0  0  0  0
  2  1  1  6
  2  3  1  0
  2  4  1  0
  2  5  1  0
  3  6  1  0
  3  7  2  0
  4  8  2  0
  4  9  1  0
  5 10  2  0
  5 11  1  0
  6 12  1  0
  8 13  1  0
  9 14  2  0
  8 15  1  0
 10 16  1  0
 11 17  2  0
 12 18  2  0
 12 19  1  0
 13 20  1  0
 14 20  1  0
 13 21  2  0
 15 22  2  0
 21 22  1  0
 16 23  2  0
 17 23  1  0
M  END
