mac-x0357-diamond-x0631_0_A
     RDKit          3D

 27 29  0  0  0  0  0  0  0  0999 V2000
    2.3010   13.0340   -4.5390 C   0  0  0  0  0  0  0  0  0  0  0  0
    0.9080   12.4770   -4.7410 C   0  0  0  0  0  0  0  0  0  0  0  0
    0.6000   11.7340   -5.8950 C   0  0  0  0  0  0  0  0  0  0  0  0
   -0.1250   12.6710   -3.8020 C   0  0  0  0  0  0  0  0  0  0  0  0
    1.6050   11.5440   -6.7750 O   0  0  0  0  0  0  0  0  0  0  0  0
    0.0940   13.4400   -2.5360 C   0  0  0  0  0  0  0  0  0  0  0  0
   -1.4020   12.1290   -4.0490 C   0  0  0  0  0  0  0  0  0  0  0  0
   -0.6690   11.2080   -6.1290 C   0  0  0  0  0  0  0  0  0  0  0  0
   -0.4550   14.4590   -2.1760 O   0  0  0  0  0  0  0  0  0  0  0  0
    1.0240   12.8730   -1.7420 O   0  0  0  0  0  0  0  0  0  0  0  0
   -1.6740   11.4050   -5.2040 C   0  0  0  0  0  0  0  0  0  0  0  0
    1.2250   10.7170   -7.9090 N   0  0  0  0  0  0  0  0  0  0  0  0
    0.1630    9.7820   -7.9080 N   0  0  0  0  0  0  0  0  0  0  0  0
    0.7820   11.5120   -8.9810 N   0  0  0  0  0  0  0  0  0  0  0  0
    0.1140    8.7170   -6.8880 C   0  0  0  0  0  0  0  0  0  0  0  0
    0.6020   10.5230   -9.9940 C   0  0  2  0  0  0  0  0  0  0  0  0
    0.3560    9.2740   -9.2580 N   0  0  0  0  0  0  0  0  0  0  0  0
   -1.1750    7.9100   -7.0680 C   0  0  0  0  0  0  0  0  0  0  0  0
    1.8410   10.4900  -10.7250 N   0  0  0  0  0  0  0  0  0  0  0  0
   -2.3340    8.8310   -7.4430 C   0  0  0  0  0  0  0  0  0  0  0  0
    2.0570    9.4130  -11.6600 C   0  0  2  0  0  0  0  0  0  0  0  0
    3.0190    8.5410  -11.0910 O   0  0  0  0  0  0  0  0  0  0  0  0
    2.5820    9.9350  -13.0280 C   0  0  2  0  0  0  0  0  0  0  0  0
    3.9600    9.5990  -13.2460 O   0  0  0  0  0  0  0  0  0  0  0  0
    2.5320   11.4430  -13.2570 C   0  0  0  0  0  0  0  0  0  0  0  0
    3.5170   11.6260  -14.4000 C   0  0  0  0  0  0  0  0  0  0  0  0
    4.3490   10.3500  -14.3970 C   0  0  0  0  0  0  0  0  0  0  0  0
  1  2  1  0
  2  3  2  0
  2  4  1  0
  3  5  1  0
  4  6  1  0
  4  7  2  0
  3  8  1  0
  6  9  2  0
  6 10  1  0
  7 11  1  0
  8 11  2  0
  5 12  1  0
 12 13  1  0
 12 14  1  0
 13 15  1  0
 14 16  1  0
 13 17  1  0
 16 17  1  0
 15 18  1  0
 16 19  1  1
 18 20  1  0
 19 21  1  0
 21 22  1  1
 21 23  1  0
 23 24  1  0
 23 25  1  1
 25 26  1  0
 24 27  1  0
 26 27  1  0
M  END
