mac-x0190-diamond-x0933_0_A
     RDKit          3D

 12 13  0  0  0  0  0  0  0  0999 V2000
   -9.3650   14.9760    2.3710 O   0  0  0  0  0  0  0  0  0  0  0  0
   -9.1600   14.1830    1.2050 C   0  0  0  0  0  0  0  0  0  0  0  0
   -7.7900   14.4820    0.7220 C   0  0  0  0  0  0  0  0  0  0  0  0
   -7.4990   14.6910   -0.6040 N   0  0  0  0  0  0  0  0  0  0  0  0
   -6.7170   14.5820    1.4610 N   0  0  0  0  0  0  0  0  0  0  0  0
   -6.1570   14.9390   -0.7160 C   0  0  0  0  0  0  0  0  0  0  0  0
   -5.6990   14.8650    0.5820 C   0  0  0  0  0  0  0  0  0  0  0  0
   -5.3180   15.2150   -1.7980 C   0  0  0  0  0  0  0  0  0  0  0  0
   -4.3570   15.0690    0.8700 C   0  0  0  0  0  0  0  0  0  0  0  0
   -3.9020   15.0080    2.1800 N   0  0  0  0  0  0  0  0  0  0  0  0
   -3.9640   15.4110   -1.5020 C   0  0  0  0  0  0  0  0  0  0  0  0
   -3.4950   15.3370   -0.1880 C   0  0  0  0  0  0  0  0  0  0  0  0
  1  2  1  0
  2  3  1  0
  3  4  1  0
  3  5  2  0
  4  6  1  0
  5  7  1  0
  6  7  2  0
  6  8  1  0
  7  9  1  0
  9 10  1  0
  8 11  2  0
  9 12  2  0
 11 12  1  0
M  END
