mac-x1493-mac-x0527
     RDKit          3D

 21 23  0  0  0  0  0  0  0  0999 V2000
   -1.1230   14.4170   -1.8880 O   0  0  0  0  0  0  0  0  0  0  0  0
   -2.3080   14.7100   -2.6240 C   0  0  2  0  0  0  0  0  0  0  0  0
   -2.3850   14.1320   -3.9330 O   0  0  0  0  0  0  0  0  0  0  0  0
   -2.1420   16.1230   -3.0820 C   0  0  0  0  0  0  0  0  0  0  0  0
   -3.5940   14.6900   -1.8040 C   0  0  0  0  0  0  0  0  0  0  0  0
   -2.9030   16.6600   -3.8790 O   0  0  0  0  0  0  0  0  0  0  0  0
   -3.6200   14.8330   -0.4020 C   0  0  0  0  0  0  0  0  0  0  0  0
   -4.8200   14.5230   -2.4260 C   0  0  0  0  0  0  0  0  0  0  0  0
   -1.7880   13.0100   -4.4500 C   0  0  0  0  0  0  0  0  0  0  0  0
   -4.8450   14.7890    0.2910 C   0  0  0  0  0  0  0  0  0  0  0  0
   -6.0100   14.4790   -1.7890 N   0  0  0  0  0  0  0  0  0  0  0  0
   -2.2120   11.7140   -4.2110 C   0  0  0  0  0  0  0  0  0  0  0  0
   -0.6760   13.2160   -5.2960 C   0  0  0  0  0  0  0  0  0  0  0  0
   -6.0240   14.6040   -0.4590 C   0  0  0  0  0  0  0  0  0  0  0  0
   -4.9200   14.9170    1.6850 C   0  0  0  0  0  0  0  0  0  0  0  0
   -1.5580   10.6320   -4.7970 C   0  0  0  0  0  0  0  0  0  0  0  0
   -0.0170   12.1300   -5.8880 C   0  0  0  0  0  0  0  0  0  0  0  0
   -7.2370   14.5460    0.2070 C   0  0  0  0  0  0  0  0  0  0  0  0
   -6.1560   14.8530    2.3320 C   0  0  0  0  0  0  0  0  0  0  0  0
   -0.4680   10.8360   -5.6360 C   0  0  0  0  0  0  0  0  0  0  0  0
   -7.3160   14.6630    1.5940 C   0  0  0  0  0  0  0  0  0  0  0  0
  2  1  1  1
  2  3  1  0
  2  4  1  0
  2  5  1  0
  4  6  2  0
  5  7  2  0
  5  8  1  0
  3  9  1  0
  7 10  1  0
  8 11  2  0
  9 12  2  0
  9 13  1  0
 10 14  2  0
 11 14  1  0
 10 15  1  0
 12 16  1  0
 13 17  2  0
 14 18  1  0
 15 19  2  0
 16 20  2  0
 17 20  1  0
 18 21  2  0
 19 21  1  0
M  END
