mac-x0223-mac-x0193
     RDKit          3D

 23 24  0  0  0  0  0  0  0  0999 V2000
    1.2120   18.3680   -5.7330 C   0  0  0  0  0  0  0  0  0  0  0  0
    0.2280   18.0930   -4.7640 O   0  0  0  0  0  0  0  0  0  0  0  0
   -0.2530   16.8170   -4.7740 C   0  0  0  0  0  0  0  0  0  0  0  0
   -1.6340   16.7620   -4.8160 C   0  0  0  0  0  0  0  0  0  0  0  0
    0.4860   15.6260   -4.7440 C   0  0  0  0  0  0  0  0  0  0  0  0
   -2.3390   17.9320   -4.8400 O   0  0  0  0  0  0  0  0  0  0  0  0
   -2.3180   15.5600   -4.8280 C   0  0  0  0  0  0  0  0  0  0  0  0
   -0.1830   14.3710   -4.7550 C   0  0  0  0  0  0  0  0  0  0  0  0
    0.5630   13.0280   -4.7170 C   0  0  1  0  0  0  0  0  0  0  0  0
   -1.5910   14.3680   -4.7970 C   0  0  0  0  0  0  0  0  0  0  0  0
    0.4630   12.4060   -3.3050 C   0  0  0  0  0  0  0  0  0  0  0  0
    0.0190   12.0640   -5.7140 N   0  0  0  0  0  0  0  0  0  0  0  0
    0.0400   11.2890   -3.0350 O   0  0  0  0  0  0  0  0  0  0  0  0
    0.8900   13.2170   -2.3100 O   0  0  0  0  0  0  0  0  0  0  0  0
    0.8210   11.5730   -6.7260 C   0  0  0  0  0  0  0  0  0  0  0  0
    2.0050   11.8280   -6.7690 O   0  0  0  0  0  0  0  0  0  0  0  0
    0.1530   10.7640   -7.6480 N   0  0  0  0  0  0  0  0  0  0  0  0
    0.7900   10.2230   -8.8640 C   0  0  0  0  0  0  0  0  0  0  0  0
    1.3240    8.8110   -8.6260 C   0  0  0  0  0  0  0  0  0  0  0  0
   -0.1320   10.2080  -10.0930 C   0  0  0  0  0  0  0  0  0  0  0  0
    1.9990    8.1830   -9.8570 C   0  0  0  0  0  0  0  0  0  0  0  0
    0.5340    9.6200  -11.3490 C   0  0  0  0  0  0  0  0  0  0  0  0
    1.1410    8.2400  -11.1200 C   0  0  0  0  0  0  0  0  0  0  0  0
  1  2  1  0
  2  3  1  0
  3  4  2  0
  3  5  1  0
  4  6  1  0
  4  7  1  0
  5  8  2  0
  8  9  1  0
  7 10  2  0
  8 10  1  0
  9 11  1  0
  9 12  1  6
 11 13  2  0
 11 14  1  0
 12 15  1  0
 15 16  2  0
 15 17  1  0
 17 18  1  0
 18 19  1  0
 18 20  1  0
 19 21  1  0
 20 22  1  0
 21 23  1  0
 22 23  1  0
M  END
