mac-x0138-mac-x0417
     RDKit          3D

 28 31  0  0  0  0  0  0  0  0999 V2000
   -1.7550   14.8170   -3.5450 C   0  0  0  0  0  0  0  0  0  0  0  0
   -2.6910   14.9650   -2.4630 N   0  0  0  0  0  0  0  0  0  0  0  0
   -4.0200   15.2220   -2.5660 C   0  0  0  0  0  0  0  0  0  0  0  0
   -2.4040   14.8800   -1.1380 C   0  0  0  0  0  0  0  0  0  0  0  0
   -4.5950   15.3100   -1.3820 N   0  0  0  0  0  0  0  0  0  0  0  0
   -3.5820   15.0960   -0.4770 C   0  0  0  0  0  0  0  0  0  0  0  0
   -1.2460   14.6510   -0.5860 N   0  0  0  0  0  0  0  0  0  0  0  0
   -3.5290   15.0640    0.9270 C   0  0  0  0  0  0  0  0  0  0  0  0
   -1.2970   14.6460    0.7430 C   0  0  0  0  0  0  0  0  0  0  0  0
   -4.6540   15.2850    1.6970 N   0  0  0  0  0  0  0  0  0  0  0  0
   -0.0590   14.4540    1.1700 N   0  0  0  0  0  0  0  0  0  0  0  0
   -2.3450   14.8190    1.5440 N   0  0  0  0  0  0  0  0  0  0  0  0
    0.6960   15.0040    0.0580 C   0  0  0  0  0  0  0  0  0  0  0  0
    1.1990   13.9450   -0.9080 C   0  0  0  0  0  0  0  0  0  0  0  0
    0.9510   14.1300   -2.3740 C   0  0  0  0  0  0  0  0  0  0  0  0
    1.6070   13.0180   -2.9970 O   0  0  0  0  0  0  0  0  0  0  0  0
    0.7960   12.1210   -3.5880 C   0  0  0  0  0  0  0  0  0  0  0  0
    0.5290   11.0060   -3.1480 O   0  0  0  0  0  0  0  0  0  0  0  0
    0.2710   12.7010   -4.8680 C   0  0  0  0  0  0  0  0  0  0  0  0
    0.2250   11.6860   -5.9290 C   0  0  0  0  0  0  0  0  0  0  0  0
    1.2260   11.6050   -6.8020 N   0  0  0  0  0  0  0  0  0  0  0  0
   -0.7780   10.7250   -6.1720 C   0  0  0  0  0  0  0  0  0  0  0  0
    0.8820   10.5700   -7.6610 O   0  0  0  0  0  0  0  0  0  0  0  0
   -0.3150   10.0440   -7.2790 C   0  0  0  0  0  0  0  0  0  0  0  0
   -2.0030   10.3520   -5.6000 C   0  0  0  0  0  0  0  0  0  0  0  0
   -0.9920    8.9910   -7.8840 C   0  0  0  0  0  0  0  0  0  0  0  0
   -2.7110    9.2950   -6.1820 C   0  0  0  0  0  0  0  0  0  0  0  0
   -2.2150    8.6260   -7.3040 C   0  0  0  0  0  0  0  0  0  0  0  0
  1  2  1  0
  2  3  1  0
  2  4  1  0
  3  5  2  0
  4  6  2  0
  5  6  1  0
  4  7  1  0
  6  8  1  0
  7  9  2  0
  8 10  1  0
  9 11  1  0
  8 12  2  0
  9 12  1  0
 11 13  1  0
 13 14  1  0
 14 15  1  0
 15 16  1  0
 16 17  1  0
 17 18  2  0
 17 19  1  0
 19 20  1  0
 20 21  2  0
 20 22  1  0
 21 23  1  0
 22 24  2  0
 23 24  1  0
 22 25  1  0
 24 26  1  0
 25 27  2  0
 26 28  2  0
 27 28  1  0
M  END
