mac-x0439-diamond-x0438_0_A
     RDKit          3D

 30 33  0  0  0  0  0  0  0  0999 V2000
   -3.1480   15.7710   -5.4960 Cl  0  0  0  0  0  0  0  0  0  0  0  0
   -1.7630   16.7830   -5.3470 C   0  0  0  0  0  0  0  0  0  0  0  0
   -0.8620   16.5990   -4.1820 C   0  0  1  0  0  0  0  0  0  0  0  0
   -1.4850   17.7420   -6.2460 C   0  0  0  0  0  0  0  0  0  0  0  0
   -0.5140   15.3090   -3.5280 C   0  0  0  0  0  0  0  0  0  0  0  0
    0.5440   16.9880   -4.5580 C   0  0  0  0  0  0  0  0  0  0  0  0
   -0.2930   18.5690   -6.1230 C   0  0  0  0  0  0  0  0  0  0  0  0
    0.8220   15.1700   -3.5160 C   0  0  0  0  0  0  0  0  0  0  0  0
    1.4730   16.1840   -4.1550 N   0  0  0  0  0  0  0  0  0  0  0  0
    0.7320   18.2340   -5.3170 C   0  0  0  0  0  0  0  0  0  0  0  0
    1.5480   14.0430   -2.8650 C   0  0  0  0  0  0  0  0  0  0  0  0
    2.3300   13.2950   -3.6640 O   0  0  0  0  0  0  0  0  0  0  0  0
    1.4430   13.8110   -1.6170 N   0  0  0  0  0  0  0  0  0  0  0  0
    0.6070   14.7650   -0.8660 C   0  0  0  0  0  0  0  0  0  0  0  0
   -0.6830   14.2040   -0.2750 C   0  0  0  0  0  0  0  0  0  0  0  0
   -1.5100   15.3510    0.3320 C   0  0  0  0  0  0  0  0  0  0  0  0
   -2.9910   15.2370    0.0190 C   0  0  0  0  0  0  0  0  0  0  0  0
   -3.5180   15.5250   -1.2550 C   0  0  0  0  0  0  0  0  0  0  0  0
   -3.8520   14.8290    1.0520 C   0  0  0  0  0  0  0  0  0  0  0  0
   -5.2220   14.7100    0.7950 C   0  0  0  0  0  0  0  0  0  0  0  0
   -4.8950   15.4110   -1.5250 C   0  0  0  0  0  0  0  0  0  0  0  0
   -6.2400   14.3310    1.6290 N   0  0  0  0  0  0  0  0  0  0  0  0
   -5.7140   14.9980   -0.4700 C   0  0  0  0  0  0  0  0  0  0  0  0
   -7.0690   14.7750   -0.3670 N   0  0  0  0  0  0  0  0  0  0  0  0
   -7.3420   14.3710    0.9250 C   0  0  0  0  0  0  0  0  0  0  0  0
   -8.6990   14.0270    1.4220 C   0  0  0  0  0  0  0  0  0  0  0  0
   -9.3550   15.2840    2.5110 S   0  0  0  0  0  0  0  0  0  0  0  0
   -8.1520   15.4780    3.8170 C   0  0  0  0  0  0  0  0  0  0  0  0
  -10.5520   14.7330    3.1230 O   0  0  0  0  0  0  0  0  0  0  0  0
   -9.4640   16.5190    1.7610 O   0  0  0  0  0  0  0  0  0  0  0  0
  1  2  1  0
  2  3  1  0
  2  4  2  0
  3  5  1  6
  3  6  1  0
  4  7  1  0
  5  8  2  0
  6  9  2  0
  8  9  1  0
  6 10  1  0
  7 10  2  0
  8 11  1  0
 11 12  1  0
 11 13  2  3
 13 14  1  0
 14 15  1  0
 15 16  1  0
 16 17  1  0
 17 18  2  0
 17 19  1  0
 19 20  2  0
 18 21  1  0
 20 22  1  0
 20 23  1  0
 21 23  2  0
 23 24  1  0
 22 25  2  0
 24 25  1  0
 25 26  1  0
 27 26  1  0
 27 28  1  0
 27 29  2  0
 27 30  2  0
M  END
