mac-x0263-mac-x0142
     RDKit          3D

 27 31  0  0  0  0  0  0  0  0999 V2000
  -11.3370   14.2220    2.1540 O   0  0  0  0  0  0  0  0  0  0  0  0
  -10.6710   15.2860    2.6370 C   0  0  0  0  0  0  0  0  0  0  0  0
  -11.2150   16.0000    3.4670 O   0  0  0  0  0  0  0  0  0  0  0  0
   -9.2880   15.4670    2.0410 C   0  0  0  0  0  0  0  0  0  0  0  0
   -8.6680   14.1490    1.5550 C   0  0  0  0  0  0  0  0  0  0  0  0
   -7.3360   14.3170    0.8600 C   0  0  0  0  0  0  0  0  0  0  0  0
   -7.1770   15.0550   -0.2940 N   0  0  0  0  0  0  0  0  0  0  0  0
   -6.1670   13.8000    1.2290 N   0  0  0  0  0  0  0  0  0  0  0  0
   -5.8540   14.9900   -0.6370 C   0  0  0  0  0  0  0  0  0  0  0  0
   -5.2390   14.2140    0.2970 C   0  0  0  0  0  0  0  0  0  0  0  0
   -5.2620   15.5980   -1.7320 C   0  0  0  0  0  0  0  0  0  0  0  0
   -3.7580   13.9040    0.2270 C   0  0  0  0  0  0  0  0  0  0  0  0
   -3.9010   15.6060   -1.7640 C   0  0  0  0  0  0  0  0  0  0  0  0
   -2.9690   14.9600   -0.6770 C   0  0  1  0  0  0  0  0  0  0  0  0
   -2.4520   15.9220    0.3730 C   0  0  0  0  0  0  0  0  0  0  0  0
   -1.4670   14.7360   -1.2580 C   0  0  2  0  0  0  0  0  0  0  0  0
   -1.1990   14.4150   -2.6760 N   0  0  0  0  0  0  0  0  0  0  0  0
   -0.5960   13.9990   -0.3560 N   0  0  0  0  0  0  0  0  0  0  0  0
   -1.6510   15.1860    1.3700 N   0  0  0  0  0  0  0  0  0  0  0  0
   -2.1890   14.1070   -3.6970 C   0  0  0  0  0  0  0  0  0  0  0  0
    0.1120   14.7970   -3.2220 C   0  0  0  0  0  0  0  0  0  0  0  0
   -0.3650   14.7560    0.8490 C   0  0  0  0  0  0  0  0  0  0  0  0
    0.6580   13.6760   -4.0720 C   0  0  0  0  0  0  0  0  0  0  0  0
   -1.7020   13.0800   -4.7390 C   0  0  0  0  0  0  0  0  0  0  0  0
    2.1510   13.5460   -4.3030 C   0  0  0  0  0  0  0  0  0  0  0  0
    1.4530   12.5910   -3.3800 C   0  0  0  0  0  0  0  0  0  0  0  0
   -0.2620   13.3180   -5.2170 C   0  0  0  0  0  0  0  0  0  0  0  0
  1  2  1  0
  2  3  2  0
  2  4  1  0
  4  5  1  0
  5  6  1  0
  6  7  1  0
  6  8  2  0
  7  9  1  0
  8 10  1  0
  9 10  2  0
  9 11  1  0
 10 12  1  0
 11 13  2  0
 14 12  1  1
 14 13  1  0
 14 15  1  0
 14 16  1  0
 16 17  1  6
 16 18  1  0
 15 19  1  0
 17 20  1  0
 17 21  1  0
 18 22  1  0
 19 22  1  0
 23 21  1  0
 20 24  1  0
 23 25  1  0
 23 26  1  0
 25 26  1  0
 23 27  1  0
 24 27  1  0
M  END
