mac-x0161-diamond-x0253_0_A
     RDKit          3D

 32 35  0  0  0  0  0  0  0  0999 V2000
   -4.5630   15.4060    1.4050 N   0  0  0  0  0  0  0  0  0  0  0  0
   -3.7620   14.7870    0.3740 C   0  0  2  0  0  0  0  0  0  0  0  0
   -2.2630   15.0350    0.5990 C   0  0  2  0  0  0  0  0  0  0  0  0
   -4.2240   15.4270   -0.8410 N   0  0  0  0  0  0  0  0  0  0  0  0
   -3.5330   14.9150   -2.0270 C   0  0  0  0  0  0  0  0  0  0  0  0
   -1.5260   14.6120   -0.6580 C   0  0  1  0  0  0  0  0  0  0  0  0
   -1.5350   14.2570    1.5990 N   0  0  0  0  0  0  0  0  0  0  0  0
   -2.1010   15.1100   -1.9010 N   0  0  0  0  0  0  0  0  0  0  0  0
   -0.1880   14.9810   -0.2450 N   0  0  0  0  0  0  0  0  0  0  0  0
   -0.1590   14.3440    1.0880 C   0  0  0  0  0  0  0  0  0  0  0  0
   -1.3440   15.0770   -3.1720 C   0  0  0  0  0  0  0  0  0  0  0  0
   -0.8690   13.6740   -3.5140 C   0  0  2  0  0  0  0  0  0  0  0  0
   -1.5840   12.9640   -4.6350 C   0  0  0  0  0  0  0  0  0  0  0  0
   -1.1980   12.8300   -2.4340 O   0  0  0  0  0  0  0  0  0  0  0  0
   -0.8300   11.5390   -2.9430 N   0  0  0  0  0  0  0  0  0  0  0  0
   -1.1940   11.5190   -4.3580 C   0  0  1  0  0  0  0  0  0  0  0  0
   -2.2280   10.5950   -4.5880 O   0  0  0  0  0  0  0  0  0  0  0  0
    0.5740   11.5800   -2.8490 C   0  0  0  0  0  0  0  0  0  0  0  0
   -2.5870   10.5350   -5.9570 C   0  0  0  0  0  0  0  0  0  0  0  0
    0.9080   12.2530   -1.6550 O   0  0  0  0  0  0  0  0  0  0  0  0
    0.8590   10.2160   -2.6770 O   0  0  0  0  0  0  0  0  0  0  0  0
    1.2830   12.2690   -4.0820 C   0  0  0  0  0  0  0  0  0  0  0  0
    0.6100   12.0240   -5.3800 N   0  0  0  0  0  0  0  0  0  0  0  0
    1.2230   11.7170   -6.5500 C   0  0  0  0  0  0  0  0  0  0  0  0
    2.3050   12.2090   -6.7270 O   0  0  0  0  0  0  0  0  0  0  0  0
    0.5970   10.7810   -7.5420 C   0  0  0  0  0  0  0  0  0  0  0  0
   -0.3300    9.8350   -7.0900 C   0  0  0  0  0  0  0  0  0  0  0  0
    0.9200   10.8270   -8.9070 C   0  0  0  0  0  0  0  0  0  0  0  0
   -0.9340    8.9450   -7.9940 C   0  0  0  0  0  0  0  0  0  0  0  0
    0.3230    9.9460   -9.8010 C   0  0  0  0  0  0  0  0  0  0  0  0
   -1.9310    7.9300   -7.5150 C   0  0  0  0  0  0  0  0  0  0  0  0
   -0.6000    9.0110   -9.3490 C   0  0  0  0  0  0  0  0  0  0  0  0
  2  1  1  1
  2  3  1  0
  2  4  1  0
  4  5  1  0
  3  6  1  0
  3  7  1  1
  5  8  1  0
  6  8  1  0
  6  9  1  1
  7 10  1  0
  9 10  1  0
  8 11  1  0
 12 11  1  1
 12 13  1  0
 12 14  1  0
 14 15  1  0
 13 16  1  0
 15 16  1  0
 16 17  1  1
 15 18  1  0
 17 19  1  0
 18 20  1  0
 18 21  1  0
 18 22  1  0
 22 23  1  0
 23 24  1  0
 24 25  2  0
 24 26  1  0
 26 27  2  0
 26 28  1  0
 27 29  1  0
 28 30  2  0
 29 31  1  0
 29 32  2  0
 30 32  1  0
M  END
