mac-x0394-mac-x0588
     RDKit          3D

 23 25  0  0  0  0  0  0  0  0999 V2000
    1.0810   18.2280   -5.9190 Cl  0  0  0  0  0  0  0  0  0  0  0  0
    0.3720   16.8680   -5.1920 C   0  0  0  0  0  0  0  0  0  0  0  0
   -0.9930   16.7810   -5.2030 C   0  0  0  0  0  0  0  0  0  0  0  0
    1.1420   15.8620   -4.5990 C   0  0  0  0  0  0  0  0  0  0  0  0
    0.5530   14.7580   -3.9700 C   0  0  0  0  0  0  0  0  0  0  0  0
   -1.6000   15.7020   -4.5910 C   0  0  0  0  0  0  0  0  0  0  0  0
   -3.3120   15.6780   -4.6840 Cl  0  0  0  0  0  0  0  0  0  0  0  0
    1.5260   13.7240   -3.3690 C   0  0  0  0  0  0  0  0  0  0  0  0
   -0.8600   14.6950   -3.9370 C   0  0  0  0  0  0  0  0  0  0  0  0
    0.8780   12.5750   -2.5990 C   0  0  0  0  0  0  0  0  0  0  0  0
   -1.5650   13.5710   -3.2050 C   0  0  0  0  0  0  0  0  0  0  0  0
    0.4550   11.5270   -3.3310 O   0  0  0  0  0  0  0  0  0  0  0  0
    0.7490   12.6090   -1.3830 O   0  0  0  0  0  0  0  0  0  0  0  0
   -2.2470   14.0130   -1.9110 N   0  0  0  0  0  0  0  0  0  0  0  0
   -3.4340   14.8440   -2.1890 C   0  0  0  0  0  0  0  0  0  0  0  0
   -1.4190   14.6150   -0.8360 C   0  0  1  0  0  0  0  0  0  0  0  0
   -4.2580   15.0300   -1.0070 N   0  0  0  0  0  0  0  0  0  0  0  0
   -2.2000   14.9830    0.4610 C   0  0  1  0  0  0  0  0  0  0  0  0
   -0.3990   13.6900   -0.3520 N   0  0  0  0  0  0  0  0  0  0  0  0
   -3.7010   14.6370    0.2700 C   0  0  1  0  0  0  0  0  0  0  0  0
   -1.5540   14.2540    1.5360 N   0  0  0  0  0  0  0  0  0  0  0  0
   -0.2150   14.1160    1.0350 C   0  0  0  0  0  0  0  0  0  0  0  0
   -4.5770   15.2880    1.2360 N   0  0  0  0  0  0  0  0  0  0  0  0
  1  2  1  0
  2  3  2  0
  2  4  1  0
  4  5  2  0
  3  6  1  0
  6  7  1  0
  5  8  1  0
  5  9  1  0
  6  9  2  0
  8 10  1  0
  9 11  1  0
 10 12  1  0
 10 13  2  0
 11 14  1  0
 14 15  1  0
 14 16  1  0
 15 17  1  0
 16 18  1  0
 16 19  1  1
 17 20  1  0
 18 20  1  0
 18 21  1  1
 19 22  1  0
 21 22  1  0
 20 23  1  1
M  END
