mac-x0303-diamond-x0685_1_A
     RDKit          3D

 28 30  0  0  0  0  0  0  0  0999 V2000
   -8.4120   12.9140    2.6220 N   0  0  0  0  0  0  0  0  0  0  0  0
   -8.5380   14.4780    2.0120 S   0  0  0  0  0  0  0  0  0  0  0  0
   -8.3690   15.4150    3.0950 O   0  0  0  0  0  0  0  0  0  0  0  0
   -9.6750   14.5260    1.1260 O   0  0  0  0  0  0  0  0  0  0  0  0
   -7.1170   14.7020    0.9910 C   0  0  0  0  0  0  0  0  0  0  0  0
   -7.1590   14.9180   -0.3640 N   0  0  0  0  0  0  0  0  0  0  0  0
   -5.8750   14.6950    1.4320 N   0  0  0  0  0  0  0  0  0  0  0  0
   -5.8630   15.0520   -0.8020 C   0  0  0  0  0  0  0  0  0  0  0  0
   -5.0860   14.9070    0.3370 C   0  0  0  0  0  0  0  0  0  0  0  0
   -5.3110   15.2820   -2.0620 C   0  0  0  0  0  0  0  0  0  0  0  0
   -3.6900   14.9850    0.2510 C   0  0  0  0  0  0  0  0  0  0  0  0
   -3.9080   15.3580   -2.1360 C   0  0  0  0  0  0  0  0  0  0  0  0
   -3.0880   15.2090   -1.0000 C   0  0  0  0  0  0  0  0  0  0  0  0
   -1.5700   15.2780   -1.1010 C   0  0  0  0  0  0  0  0  0  0  0  0
   -1.0140   14.3490   -2.1890 C   0  0  0  0  0  0  0  0  0  0  0  0
    0.1270   13.6100   -1.7220 O   0  0  0  0  0  0  0  0  0  0  0  0
    0.6490   12.3470   -2.5770 S   0  0  0  0  0  0  0  0  0  0  0  0
   -0.2120   12.3150   -4.1370 C   0  0  0  0  0  0  0  0  0  0  0  0
    2.2100   12.4240   -2.9350 O   0  0  0  0  0  0  0  0  0  0  0  0
    0.3070   10.9630   -1.8300 O   0  0  0  0  0  0  0  0  0  0  0  0
   -1.0200   11.0300   -4.2220 C   0  0  0  0  0  0  0  0  0  0  0  0
   -2.0030   11.0890   -5.3010 N   0  0  0  0  0  0  0  0  0  0  0  0
   -1.7150   10.2600   -6.4890 C   0  0  0  0  0  0  0  0  0  0  0  0
   -0.3650    9.5520   -6.4670 C   0  0  0  0  0  0  0  0  0  0  0  0
   -1.7670   11.1860   -7.7210 C   0  0  0  0  0  0  0  0  0  0  0  0
   -0.0990    8.6750   -7.6920 C   0  0  0  0  0  0  0  0  0  0  0  0
   -1.0470   10.6520   -8.9620 C   0  0  0  0  0  0  0  0  0  0  0  0
   -0.8570    9.1400   -8.9350 C   0  0  0  0  0  0  0  0  0  0  0  0
  2  1  1  0
  2  3  2  0
  2  4  2  0
  2  5  1  0
  5  6  1  0
  5  7  2  0
  6  8  1  0
  7  9  1  0
  8  9  2  0
  8 10  1  0
  9 11  1  0
 10 12  2  0
 11 13  2  0
 12 13  1  0
 13 14  1  0
 14 15  1  0
 15 16  1  0
 17 16  1  0
 17 18  1  0
 17 19  1  0
 17 20  1  0
 18 21  1  0
 21 22  1  0
 22 23  1  0
 23 24  1  0
 23 25  1  0
 24 26  1  0
 25 27  1  0
 26 28  1  0
 27 28  1  0
M  END
