mac-x0213-mac-x0451
     RDKit          3D

 23 26  0  0  0  0  0  0  0  0999 V2000
   -0.1450   11.9650   -3.8000 O   0  0  0  0  0  0  0  0  0  0  0  0
    0.5450   12.8420   -3.0410 C   0  0  0  0  0  0  0  0  0  0  0  0
    1.3130   12.4630   -2.1810 O   0  0  0  0  0  0  0  0  0  0  0  0
    0.2780   14.2930   -3.3230 C   0  0  2  0  0  0  0  0  0  0  0  0
   -1.1910   14.5410   -3.6790 C   0  0  1  0  0  0  0  0  0  0  0  0
    1.1610   14.9640   -4.3800 C   0  0  0  0  0  0  0  0  0  0  0  0
   -1.6780   14.9880   -2.4350 O   0  0  0  0  0  0  0  0  0  0  0  0
   -1.0910   15.7860   -4.5090 C   0  0  0  0  0  0  0  0  0  0  0  0
    0.2350   16.0370   -4.8790 C   0  0  0  0  0  0  0  0  0  0  0  0
   -2.1180   16.6380   -4.8880 C   0  0  0  0  0  0  0  0  0  0  0  0
    0.5550   17.1600   -5.6160 C   0  0  0  0  0  0  0  0  0  0  0  0
   -2.9330   14.9860   -1.9680 C   0  0  0  0  0  0  0  0  0  0  0  0
   -1.8010   17.7670   -5.6370 C   0  0  0  0  0  0  0  0  0  0  0  0
   -0.4700   18.0290   -5.9940 C   0  0  0  0  0  0  0  0  0  0  0  0
   -4.1500   15.0760   -2.6290 C   0  0  0  0  0  0  0  0  0  0  0  0
   -2.8760   14.8810   -0.5910 C   0  0  0  0  0  0  0  0  0  0  0  0
   -4.0460   14.8650    0.1230 C   0  0  0  0  0  0  0  0  0  0  0  0
   -5.3400   15.0570   -1.8890 C   0  0  0  0  0  0  0  0  0  0  0  0
   -5.2900   14.9460   -0.4860 C   0  0  0  0  0  0  0  0  0  0  0  0
   -4.2320   14.7510    1.7990 S   0  0  0  0  0  0  0  0  0  0  0  0
   -5.9330   14.8050    1.6090 C   0  0  0  0  0  0  0  0  0  0  0  0
   -6.3620   14.9050    0.3770 N   0  0  0  0  0  0  0  0  0  0  0  0
   -6.7590   14.7520    2.6650 N   0  0  0  0  0  0  0  0  0  0  0  0
  1  2  1  0
  2  3  2  0
  4  2  1  6
  4  5  1  0
  4  6  1  0
  5  7  1  1
  5  8  1  0
  6  9  1  0
  8  9  2  0
  8 10  1  0
  9 11  1  0
  7 12  1  0
 10 13  2  0
 11 14  2  0
 13 14  1  0
 12 15  2  0
 12 16  1  0
 16 17  2  0
 15 18  1  0
 17 19  1  0
 18 19  2  0
 17 20  1  0
 20 21  1  0
 19 22  1  0
 21 22  2  0
 21 23  1  0
M  END
