mac-x0345-mac-x0433
     RDKit          3D

 10 10  0  0  0  0  0  0  0  0999 V2000
   -7.7910   14.7950    0.5350 C   0  0  0  0  0  0  0  0  0  0  0  0
   -6.5230   14.8850   -0.2720 C   0  0  0  0  0  0  0  0  0  0  0  0
   -6.6810   14.8560   -1.6060 N   0  0  0  0  0  0  0  0  0  0  0  0
   -5.2620   14.9880    0.2960 C   0  0  0  0  0  0  0  0  0  0  0  0
   -5.0020   15.0500    2.1330 Br  0  0  0  0  0  0  0  0  0  0  0  0
   -4.1350   15.0460   -0.4810 C   0  0  0  0  0  0  0  0  0  0  0  0
   -5.5940   14.9240   -2.3790 C   0  0  0  0  0  0  0  0  0  0  0  0
   -5.8320   14.8820   -3.7490 N   0  0  0  0  0  0  0  0  0  0  0  0
   -2.7920   15.1200    0.1770 C   0  0  0  0  0  0  0  0  0  0  0  0
   -4.2980   15.0200   -1.8630 C   0  0  0  0  0  0  0  0  0  0  0  0
  1  2  1  0
  2  3  2  0
  2  4  1  0
  4  5  1  0
  4  6  2  0
  3  7  1  0
  7  8  1  0
  6  9  1  0
  6 10  1  0
  7 10  2  0
M  END
