mac-x0306-mac-x0584
     RDKit          3D

 25 29  0  0  0  0  0  0  0  0999 V2000
   -8.6020   14.8810    1.0970 C   0  0  0  0  0  0  0  0  0  0  0  0
   -7.8580   14.7520    2.2440 C   0  0  0  0  0  0  0  0  0  0  0  0
   -6.5980   14.4300    1.8230 N   0  0  0  0  0  0  0  0  0  0  0  0
   -7.8310   14.6460   -0.0060 N   0  0  0  0  0  0  0  0  0  0  0  0
   -6.6130   14.3710    0.4490 C   0  0  0  0  0  0  0  0  0  0  0  0
   -5.4300   14.0300   -0.4370 C   0  0  1  0  0  0  0  0  0  0  0  0
   -5.5340   14.5730   -1.8250 C   0  0  0  0  0  0  0  0  0  0  0  0
   -3.9970   14.0860    0.1650 C   0  0  0  0  0  0  0  0  0  0  0  0
   -4.6240   15.3970   -2.2870 C   0  0  0  0  0  0  0  0  0  0  0  0
   -2.9200   14.9440   -0.5950 C   0  0  1  0  0  0  0  0  0  0  0  0
   -3.5820   15.8080   -1.5420 N   0  0  0  0  0  0  0  0  0  0  0  0
   -2.1990   15.8150    0.4600 C   0  0  0  0  0  0  0  0  0  0  0  0
   -1.6370   14.2740   -1.3080 C   0  0  1  0  0  0  0  0  0  0  0  0
   -1.5550   14.4100   -2.8190 N   0  0  0  0  0  0  0  0  0  0  0  0
   -0.3610   14.8070   -0.7590 N   0  0  0  0  0  0  0  0  0  0  0  0
   -1.3420   15.0560    1.3540 N   0  0  0  0  0  0  0  0  0  0  0  0
   -0.2100   14.4970   -3.4880 C   0  0  1  0  0  0  0  0  0  0  0  0
   -2.3700   15.4580   -3.4760 C   0  0  0  0  0  0  0  0  0  0  0  0
   -0.1250   14.7340    0.6710 C   0  0  0  0  0  0  0  0  0  0  0  0
    0.0670   13.0710   -3.9200 C   0  0  0  0  0  0  0  0  0  0  0  0
   -0.3370   15.4420   -4.6880 C   0  0  0  0  0  0  0  0  0  0  0  0
   -1.8240   15.6150   -4.8760 C   0  0  0  0  0  0  0  0  0  0  0  0
    1.2900   12.3080   -3.3490 C   0  0  0  0  0  0  0  0  0  0  0  0
   -0.8300   11.9260   -3.3640 C   0  0  0  0  0  0  0  0  0  0  0  0
    0.3970   11.0380   -3.4560 C   0  0  0  0  0  0  0  0  0  0  0  0
  1  2  2  0
  2  3  1  0
  1  4  1  0
  3  5  1  0
  4  5  2  0
  6  5  1  1
  6  7  1  0
  6  8  1  0
  7  9  2  0
 10  8  1  1
  9 11  1  0
 10 11  1  0
 10 12  1  0
 10 13  1  0
 13 14  1  6
 13 15  1  0
 12 16  1  0
 14 17  1  0
 14 18  1  0
 15 19  1  0
 16 19  1  0
 17 20  1  6
 17 21  1  0
 18 22  1  0
 21 22  1  0
 20 23  1  0
 20 24  1  0
 23 25  1  0
 24 25  1  0
M  END
