mac-x0402-mac-x0415
     RDKit          3D

 27 30  0  0  0  0  0  0  0  0999 V2000
   -1.5460   14.6460   -3.0000 Cl  0  0  0  0  0  0  0  0  0  0  0  0
   -3.0120   14.6390   -2.1270 C   0  0  0  0  0  0  0  0  0  0  0  0
   -4.2340   14.2970   -2.7140 C   0  0  0  0  0  0  0  0  0  0  0  0
   -2.8930   14.9820   -0.7910 C   0  0  0  0  0  0  0  0  0  0  0  0
   -4.0240   14.9820   -0.0070 C   0  0  0  0  0  0  0  0  0  0  0  0
   -5.3830   14.3230   -1.8850 C   0  0  0  0  0  0  0  0  0  0  0  0
   -4.3340   13.8660   -4.1840 C   0  0  0  0  0  0  0  0  0  0  0  0
   -5.2770   14.6590   -0.5120 C   0  0  0  0  0  0  0  0  0  0  0  0
   -4.1490   15.3410    1.6490 S   0  0  0  0  0  0  0  0  0  0  0  0
   -4.8760   14.7800   -5.2860 C   0  0  0  0  0  0  0  0  0  0  0  0
   -5.8300   15.0080    1.5830 C   0  0  0  0  0  0  0  0  0  0  0  0
   -6.3030   14.6850    0.4100 N   0  0  0  0  0  0  0  0  0  0  0  0
   -3.9430   15.7810   -5.7360 O   0  0  0  0  0  0  0  0  0  0  0  0
   -6.5850   15.0760    2.6920 N   0  0  0  0  0  0  0  0  0  0  0  0
   -2.5930   15.7800   -5.4550 C   0  0  0  0  0  0  0  0  0  0  0  0
   -1.9960   17.0950   -5.7540 C   0  0  0  0  0  0  0  0  0  0  0  0
   -1.8110   14.7670   -4.9800 C   0  0  0  0  0  0  0  0  0  0  0  0
   -0.4050   15.0180   -4.7390 C   0  0  0  0  0  0  0  0  0  0  0  0
   -0.7640   17.4280   -5.3320 C   0  0  0  0  0  0  0  0  0  0  0  0
    0.6650   14.2150   -4.6180 C   0  0  0  0  0  0  0  0  0  0  0  0
   -0.0270   16.4360   -4.5180 C   0  0  2  0  0  0  0  0  0  0  0  0
    0.8850   12.7550   -4.6500 C   0  0  0  0  0  0  0  0  0  0  0  0
    1.7210   15.2100   -4.4310 C   0  0  0  0  0  0  0  0  0  0  0  0
    1.4030   16.4660   -4.4150 N   0  0  0  0  0  0  0  0  0  0  0  0
    0.7820   12.1860   -3.2430 C   0  0  0  0  0  0  0  0  0  0  0  0
    0.1570   10.9910   -3.2100 O   0  0  0  0  0  0  0  0  0  0  0  0
    1.1830   12.6840   -2.2030 O   0  0  0  0  0  0  0  0  0  0  0  0
  1  2  1  0
  2  3  2  0
  2  4  1  0
  4  5  2  0
  3  6  1  0
  3  7  1  0
  5  8  1  0
  6  8  2  0
  5  9  1  0
  7 10  1  0
  9 11  1  0
  8 12  1  0
 11 12  2  0
 10 13  1  0
 11 14  1  0
 13 15  1  0
 15 16  1  0
 15 17  2  0
 17 18  1  0
 16 19  2  0
 18 20  2  0
 18 21  1  0
 21 19  1  6
 20 22  1  0
 20 23  1  0
 21 24  1  0
 23 24  2  0
 22 25  1  0
 25 26  1  0
 25 27  2  0
M  END
