mac-x0360-mac-x0116
     RDKit          3D

 26 29  0  0  0  0  0  0  0  0999 V2000
   -7.5520   10.6260    1.3910 Cl  0  0  0  0  0  0  0  0  0  0  0  0
   -6.6170   11.0670    0.0010 C   0  0  0  0  0  0  0  0  0  0  0  0
   -6.5300   10.1030   -0.9870 C   0  0  0  0  0  0  0  0  0  0  0  0
   -5.9830   12.2930   -0.1490 C   0  0  0  0  0  0  0  0  0  0  0  0
   -5.3060   12.5470   -1.3640 C   0  0  0  0  0  0  0  0  0  0  0  0
   -5.8170   10.3600   -2.1340 C   0  0  0  0  0  0  0  0  0  0  0  0
   -6.0390   13.2440    0.9750 C   0  0  2  0  0  0  0  0  0  0  0  0
   -5.6740    9.1660   -3.3400 Cl  0  0  0  0  0  0  0  0  0  0  0  0
   -4.5210   14.0990   -1.8260 S   0  0  0  0  0  0  0  0  0  0  0  0
   -5.2210   11.5730   -2.3330 C   0  0  0  0  0  0  0  0  0  0  0  0
   -5.4110   12.4730    2.0830 C   0  0  0  0  0  0  0  0  0  0  0  0
   -7.3500   13.6200    1.6460 C   0  0  2  0  0  0  0  0  0  0  0  0
   -2.9170   13.6880   -1.9370 N   0  0  0  0  0  0  0  0  0  0  0  0
   -4.9380   15.0980   -0.7880 O   0  0  0  0  0  0  0  0  0  0  0  0
   -7.1380   14.8520    2.4880 C   0  0  0  0  0  0  0  0  0  0  0  0
   -6.3220   11.9990    2.9350 C   0  0  0  0  0  0  0  0  0  0  0  0
   -7.6800   12.4220    2.5390 C   0  0  0  0  0  0  0  0  0  0  0  0
   -2.3800   14.8490   -1.4950 N   0  0  0  0  0  0  0  0  0  0  0  0
   -3.5090   15.6310   -1.3790 C   0  0  0  0  0  0  0  0  0  0  0  0
   -1.6410   14.6170   -0.3790 C   0  0  0  0  0  0  0  0  0  0  0  0
   -4.0930   15.9390   -0.2540 N   0  0  0  0  0  0  0  0  0  0  0  0
   -2.2920   14.8860    0.9040 C   0  0  0  0  0  0  0  0  0  0  0  0
   -0.4430   14.1830   -0.1450 N   0  0  0  0  0  0  0  0  0  0  0  0
   -3.4690   15.4980    0.8920 C   0  0  0  0  0  0  0  0  0  0  0  0
   -1.4940   14.4480    1.8820 N   0  0  0  0  0  0  0  0  0  0  0  0
   -0.4310   14.0910    1.2420 C   0  0  0  0  0  0  0  0  0  0  0  0
  1  2  1  0
  2  3  2  0
  2  4  1  0
  4  5  2  0
  3  6  1  0
  7  4  1  6
  6  8  1  0
  5  9  1  0
  5 10  1  0
  6 10  2  0
  7 11  1  0
  7 12  1  0
  9 13  1  1
  9 14  2  0
 12 15  1  1
 11 16  2  0
 12 17  1  0
 16 17  1  0
 13 18  1  0
 18 19  1  0
 18 20  1  0
 19 21  2  0
 20 22  1  0
 20 23  2  0
 21 24  1  0
 22 24  2  0
 22 25  1  0
 23 26  1  0
 25 26  2  0
M  END
