mac-x0305-diamond-x0895_1_A
     RDKit          3D

 11 11  0  0  0  0  0  0  0  0999 V2000
   -0.1240   13.0140   -0.7170 O   0  0  0  0  0  0  0  0  0  0  0  0
   -0.4520   14.1180   -1.4270 C   0  0  0  0  0  0  0  0  0  0  0  0
    0.2100   14.4140   -2.4100 O   0  0  0  0  0  0  0  0  0  0  0  0
   -1.6780   14.8760   -0.8970 C   0  0  2  0  0  0  0  0  0  0  0  0
   -2.0880   14.5580    0.5710 C   0  0  1  0  0  0  0  0  0  0  0  0
   -2.7850   14.5840   -1.8430 N   0  0  0  0  0  0  0  0  0  0  0  0
   -1.0360   14.8340    1.5180 O   0  0  0  0  0  0  0  0  0  0  0  0
   -3.3060   15.3850    0.9610 C   0  0  0  0  0  0  0  0  0  0  0  0
   -4.0130   15.3250   -1.5380 C   0  0  0  0  0  0  0  0  0  0  0  0
   -4.4010   15.1880   -0.0650 C   0  0  0  0  0  0  0  0  0  0  0  0
   -5.5630   14.9300    0.2940 O   0  0  0  0  0  0  0  0  0  0  0  0
  1  2  1  0
  2  3  2  0
  4  2  1  6
  4  5  1  0
  4  6  1  0
  5  7  1  1
  5  8  1  0
  6  9  1  0
  8 10  1  0
  9 10  1  0
 10 11  2  0
M  END
