mac-x0231-diamond-x0895_0_A
     RDKit          3D

 24 26  0  0  0  0  0  0  0  0999 V2000
    0.6490   10.9030   -3.3870 O   0  0  0  0  0  0  0  0  0  0  0  0
    1.3680   12.0290   -3.2000 C   0  0  0  0  0  0  0  0  0  0  0  0
    1.5410   12.4530   -2.0750 O   0  0  0  0  0  0  0  0  0  0  0  0
    1.8720   12.6450   -4.4770 C   0  0  0  0  0  0  0  0  0  0  0  0
    1.3340   14.0370   -4.5250 C   0  0  0  0  0  0  0  0  0  0  0  0
   -0.1080   14.1730   -4.5220 C   0  0  0  0  0  0  0  0  0  0  0  0
    2.1380   15.0320   -4.4790 N   0  0  0  0  0  0  0  0  0  0  0  0
   -0.6390   15.4540   -4.5150 C   0  0  0  0  0  0  0  0  0  0  0  0
    1.6090   16.2810   -4.4670 N   0  0  0  0  0  0  0  0  0  0  0  0
   -0.9140   13.0480   -4.4930 C   0  0  0  0  0  0  0  0  0  0  0  0
    0.2830   16.5990   -4.5730 C   0  0  0  0  0  0  0  0  0  0  0  0
   -2.0220   15.6150   -4.4310 C   0  0  0  0  0  0  0  0  0  0  0  0
   -2.2710   13.1990   -4.4090 C   0  0  0  0  0  0  0  0  0  0  0  0
   -0.1060   17.7550   -4.7070 O   0  0  0  0  0  0  0  0  0  0  0  0
   -2.8230   14.4640   -4.3540 C   0  0  0  0  0  0  0  0  0  0  0  0
   -4.2820   14.5210   -4.1700 C   0  0  0  0  0  0  0  0  0  0  0  0
   -4.5510   13.8740   -2.7860 C   0  0  0  0  0  0  0  0  0  0  0  0
   -4.8630   14.8310   -1.7050 N   0  0  0  0  0  0  0  0  0  0  0  0
   -4.1620   15.0530   -0.6330 C   0  0  0  0  0  0  0  0  0  0  0  0
   -4.4150   15.8870    0.4000 N   0  0  0  0  0  0  0  0  0  0  0  0
   -2.9820   14.4250   -0.3240 N   0  0  0  0  0  0  0  0  0  0  0  0
   -4.0240   15.1440    1.5690 C   0  0  0  0  0  0  0  0  0  0  0  0
   -2.7050   14.6290    1.0270 C   0  0  0  0  0  0  0  0  0  0  0  0
   -1.6550   14.4530    1.6460 O   0  0  0  0  0  0  0  0  0  0  0  0
  1  2  1  0
  2  3  2  0
  2  4  1  0
  4  5  1  0
  5  6  1  0
  5  7  2  0
  6  8  2  0
  7  9  1  0
  6 10  1  0
  8 11  1  0
  9 11  1  0
  8 12  1  0
 10 13  2  0
 11 14  2  0
 12 15  2  0
 13 15  1  0
 15 16  1  0
 16 17  1  0
 17 18  1  0
 18 19  2  3
 19 20  1  0
 19 21  1  0
 20 22  1  0
 21 23  1  0
 22 23  1  0
 23 24  2  0
M  END
