mac-x0212-mac-x0387
     RDKit          3D

 20 21  0  0  0  0  0  0  0  0999 V2000
   -6.7950   12.6810    1.5500 C   0  0  0  0  0  0  0  0  0  0  0  0
   -7.1920   14.3630    1.1180 S   0  0  0  0  0  0  0  0  0  0  0  0
   -7.7760   15.0280    2.2560 O   0  0  0  0  0  0  0  0  0  0  0  0
   -7.8390   14.3680   -0.1760 O   0  0  0  0  0  0  0  0  0  0  0  0
   -5.6530   14.9270    0.8260 N   0  0  0  0  0  0  0  0  0  0  0  0
   -5.0010   14.3240   -0.3250 C   0  0  2  0  0  0  0  0  0  0  0  0
   -3.6750   13.6030    0.0620 C   0  0  0  0  0  0  0  0  0  0  0  0
   -4.9090   15.4180   -1.3740 C   0  0  0  0  0  0  0  0  0  0  0  0
   -2.4600   14.2770   -0.6020 C   0  0  1  0  0  0  0  0  0  0  0  0
   -3.8880   15.4700   -2.2260 C   0  0  0  0  0  0  0  0  0  0  0  0
   -2.8410   14.4400   -2.0960 C   0  0  1  0  0  0  0  0  0  0  0  0
   -2.2450   15.5520    0.2900 C   0  0  1  0  0  0  0  0  0  0  0  0
   -1.1530   13.4840   -0.6650 C   0  0  0  0  0  0  0  0  0  0  0  0
   -1.7200   14.6110   -3.1070 C   0  0  0  0  0  0  0  0  0  0  0  0
   -3.4410   16.0510    0.9330 N   0  0  0  0  0  0  0  0  0  0  0  0
   -0.1260   13.7420    0.1320 C   0  0  0  0  0  0  0  0  0  0  0  0
   -1.4790   15.2220    1.4600 N   0  0  0  0  0  0  0  0  0  0  0  0
   -0.5280   14.4080   -2.9310 O   0  0  0  0  0  0  0  0  0  0  0  0
   -2.1670   15.0090   -4.3150 O   0  0  0  0  0  0  0  0  0  0  0  0
   -0.1410   14.7810    1.1720 C   0  0  0  0  0  0  0  0  0  0  0  0
  1  2  1  0
  2  3  2  0
  2  4  2  0
  2  5  1  0
  6  5  1  1
  6  7  1  0
  6  8  1  0
  9  7  1  1
  8 10  2  0
  9 11  1  0
 10 11  1  0
  9 12  1  0
  9 13  1  0
 11 14  1  6
 12 15  1  1
 13 16  2  0
 12 17  1  0
 14 18  2  0
 14 19  1  0
 16 20  1  0
 17 20  1  0
M  END
