mac-x0131-diamond-x0864_0_A
     RDKit          3D

 29 32  0  0  0  0  0  0  0  0999 V2000
   -4.2740   14.9750   -4.0310 C   0  0  0  0  0  0  0  0  0  0  0  0
   -3.6140   14.9930   -2.7050 C   0  0  0  0  0  0  0  0  0  0  0  0
   -4.1200   15.1290   -1.4310 C   0  0  0  0  0  0  0  0  0  0  0  0
   -2.2780   14.8580   -2.6180 N   0  0  0  0  0  0  0  0  0  0  0  0
   -5.5460   15.3210   -1.0830 C   0  0  0  0  0  0  0  0  0  0  0  0
   -1.4820   14.7210   -3.8170 C   0  0  0  0  0  0  0  0  0  0  0  0
   -3.0180   15.0490   -0.5180 C   0  0  0  0  0  0  0  0  0  0  0  0
   -1.8720   14.8770   -1.2810 C   0  0  0  0  0  0  0  0  0  0  0  0
   -2.8610   15.1090    0.8790 C   0  0  0  0  0  0  0  0  0  0  0  0
   -0.6140   14.7590   -0.7770 N   0  0  0  0  0  0  0  0  0  0  0  0
   -0.6380   13.5620   -3.7050 C   0  0  0  0  0  0  0  0  0  0  0  0
   -3.9290   15.3040    1.7400 N   0  0  0  0  0  0  0  0  0  0  0  0
   -1.6270   14.9830    1.4260 N   0  0  0  0  0  0  0  0  0  0  0  0
   -0.5900   14.8210    0.5780 C   0  0  0  0  0  0  0  0  0  0  0  0
   -0.2080   12.4780   -4.4330 C   0  0  0  0  0  0  0  0  0  0  0  0
   -0.1250   13.5630   -2.4830 O   0  0  0  0  0  0  0  0  0  0  0  0
    0.6630   12.5240   -2.3930 C   0  0  0  0  0  0  0  0  0  0  0  0
    0.6650   11.8550   -3.5370 C   0  0  0  0  0  0  0  0  0  0  0  0
   -0.5520   12.0990   -5.7290 N   0  0  0  0  0  0  0  0  0  0  0  0
   -1.8330   11.5870   -5.6790 C   0  0  0  0  0  0  0  0  0  0  0  0
    0.4030   11.5500   -6.6020 C   0  0  0  0  0  0  0  0  0  0  0  0
    1.3940   10.8350   -3.7090 O   0  0  0  0  0  0  0  0  0  0  0  0
    1.5580   11.9270   -6.7690 O   0  0  0  0  0  0  0  0  0  0  0  0
   -2.2180   10.5310   -6.3810 C   0  0  0  0  0  0  0  0  0  0  0  0
   -0.0450   10.3650   -7.3880 C   0  0  0  0  0  0  0  0  0  0  0  0
    2.6150   11.3790   -3.7850 C   0  0  0  0  0  0  0  0  0  0  0  0
   -1.2920    9.8860   -7.2590 C   0  0  0  0  0  0  0  0  0  0  0  0
    2.9820   12.3630   -3.1530 O   0  0  0  0  0  0  0  0  0  0  0  0
   -1.8950    8.3840   -8.1810 Br  0  0  0  0  0  0  0  0  0  0  0  0
  1  2  1  0
  2  3  2  0
  2  4  1  0
  3  5  1  0
  4  6  1  0
  3  7  1  0
  4  8  1  0
  7  8  2  0
  7  9  1  0
  8 10  1  0
  6 11  1  0
  9 12  1  0
  9 13  2  0
 10 14  2  0
 13 14  1  0
 11 15  2  0
 11 16  1  0
 16 17  1  0
 15 18  1  0
 17 18  2  0
 15 19  1  0
 19 20  1  0
 19 21  1  0
 18 22  1  0
 21 23  2  0
 20 24  2  0
 21 25  1  0
 22 26  1  0
 24 27  1  0
 25 27  2  0
 26 28  2  0
 27 29  1  0
M  END
