mac-x0180-diamond-x0933_0_A
     RDKit          3D

 13 13  0  0  0  0  0  0  0  0999 V2000
   -7.7230   14.5380    1.5940 C   0  0  0  0  0  0  0  0  0  0  0  0
   -6.7790   14.7330    0.4350 C   0  0  0  0  0  0  0  0  0  0  0  0
   -7.2080   14.8030   -0.7110 O   0  0  0  0  0  0  0  0  0  0  0  0
   -5.4500   14.8320    0.8250 N   0  0  0  0  0  0  0  0  0  0  0  0
   -4.3750   14.8700   -0.0860 C   0  0  0  0  0  0  0  0  0  0  0  0
   -3.0780   14.7030    0.4180 C   0  0  0  0  0  0  0  0  0  0  0  0
   -4.5500   15.0620   -1.4600 C   0  0  0  0  0  0  0  0  0  0  0  0
   -1.9740   14.7220   -0.4440 C   0  0  0  0  0  0  0  0  0  0  0  0
   -3.4560   15.0810   -2.3260 C   0  0  0  0  0  0  0  0  0  0  0  0
   -2.1690   14.9060   -1.8230 C   0  0  0  0  0  0  0  0  0  0  0  0
   -1.0330   14.9380   -2.7760 C   0  0  0  0  0  0  0  0  0  0  0  0
   -1.1730   14.9840   -3.9850 O   0  0  0  0  0  0  0  0  0  0  0  0
    0.1670   14.9300   -2.1610 O   0  0  0  0  0  0  0  0  0  0  0  0
  1  2  1  0
  2  3  2  0
  2  4  1  0
  4  5  1  0
  5  6  2  0
  5  7  1  0
  6  8  1  0
  7  9  2  0
  8 10  2  0
  9 10  1  0
 10 11  1  0
 11 12  2  0
 11 13  1  0
M  END
