mac-x0255-mac-x0337
     RDKit          3D

 25 27  0  0  0  0  0  0  0  0999 V2000
    0.6230   12.6470   -1.3500 O   0  0  0  0  0  0  0  0  0  0  0  0
    0.4460   12.0680   -2.5580 C   0  0  0  0  0  0  0  0  0  0  0  0
   -0.0850   10.9720   -2.6310 O   0  0  0  0  0  0  0  0  0  0  0  0
    0.9300   12.7870   -3.7910 C   0  0  0  0  0  0  0  0  0  0  0  0
    0.2770   14.0980   -4.1790 C   0  0  0  0  0  0  0  0  0  0  0  0
   -0.9510   14.7320   -3.9350 C   0  0  0  0  0  0  0  0  0  0  0  0
    1.2190   15.0640   -5.1480 S   0  0  0  0  0  0  0  0  0  0  0  0
   -2.1010   14.1860   -3.0930 C   0  0  0  0  0  0  0  0  0  0  0  0
   -1.0220   16.0310   -4.6160 C   0  0  0  0  0  0  0  0  0  0  0  0
    0.1040   16.3110   -5.2970 C   0  0  0  0  0  0  0  0  0  0  0  0
   -2.9170   15.1540   -2.3080 N   0  0  0  0  0  0  0  0  0  0  0  0
   -2.0170   17.0190   -4.6960 C   0  0  0  0  0  0  0  0  0  0  0  0
    0.2750   17.4930   -6.0180 C   0  0  0  0  0  0  0  0  0  0  0  0
   -3.5380   14.6680   -0.9930 S   0  0  1  0  0  0  0  0  0  0  0  0
   -1.8620   18.2090   -5.4110 C   0  0  0  0  0  0  0  0  0  0  0  0
   -0.7160   18.4370   -6.0680 C   0  0  0  0  0  0  0  0  0  0  0  0
   -2.8510   14.7170    0.2790 O   0  0  0  0  0  0  0  0  0  0  0  0
   -4.7880   15.7500   -0.7460 N   0  0  0  0  0  0  0  0  0  0  0  0
   -4.2550   13.0800   -1.2670 C   0  0  0  0  0  0  0  0  0  0  0  0
   -3.5890   12.1670   -2.0820 C   0  0  0  0  0  0  0  0  0  0  0  0
   -5.4770   12.7480   -0.6780 C   0  0  0  0  0  0  0  0  0  0  0  0
   -4.1480   10.9150   -2.3210 C   0  0  0  0  0  0  0  0  0  0  0  0
   -6.0330   11.4880   -0.9210 C   0  0  0  0  0  0  0  0  0  0  0  0
   -5.3730   10.5670   -1.7450 C   0  0  0  0  0  0  0  0  0  0  0  0
   -5.9620    9.2120   -2.0140 C   0  0  0  0  0  0  0  0  0  0  0  0
  1  2  1  0
  2  3  2  0
  2  4  1  0
  4  5  1  0
  5  6  2  0
  5  7  1  0
  6  8  1  0
  6  9  1  0
  7 10  1  0
  9 10  2  0
  8 11  1  0
  9 12  1  0
 10 13  1  0
 11 14  2  0
 12 15  2  0
 13 16  2  0
 15 16  1  0
 14 17  2  0
 14 18  1  1
 14 19  1  0
 19 20  2  0
 19 21  1  0
 20 22  1  0
 21 23  2  0
 22 24  2  0
 23 24  1  0
 24 25  1  0
M  END
