mac-x0572-mac-x0398
     RDKit          3D

 17 18  0  0  0  0  0  0  0  0999 V2000
   -8.2190   14.6400    3.2710 C   0  0  0  0  0  0  0  0  0  0  0  0
   -7.5210   14.7030    1.9380 C   0  0  0  0  0  0  0  0  0  0  0  0
   -6.1870   14.9780    2.0270 N   0  0  0  0  0  0  0  0  0  0  0  0
   -8.1640   14.5160    0.7730 C   0  0  0  0  0  0  0  0  0  0  0  0
   -9.5090   14.2500    0.6620 O   0  0  0  0  0  0  0  0  0  0  0  0
   -7.3580   14.6010   -0.4730 C   0  0  0  0  0  0  0  0  0  0  0  0
   -5.4240   14.7910    1.0000 C   0  0  0  0  0  0  0  0  0  0  0  0
   -7.8910   14.9150   -1.5300 O   0  0  0  0  0  0  0  0  0  0  0  0
   -5.9120   14.2640   -0.3070 C   0  0  2  0  0  0  0  0  0  0  0  0
   -3.9930   15.0990    1.1440 C   0  0  0  0  0  0  0  0  0  0  0  0
   -3.6780   15.2500    2.4370 N   0  0  0  0  0  0  0  0  0  0  0  0
   -3.2230   15.1810    0.0490 C   0  0  0  0  0  0  0  0  0  0  0  0
   -5.0170   14.5790   -1.4580 C   0  0  0  0  0  0  0  0  0  0  0  0
   -3.7600   14.9940   -1.3000 C   0  0  0  0  0  0  0  0  0  0  0  0
   -3.0400   15.2050   -2.5790 C   0  0  0  0  0  0  0  0  0  0  0  0
   -3.5510   15.4640   -3.6570 O   0  0  0  0  0  0  0  0  0  0  0  0
   -1.7140   15.0570   -2.4730 O   0  0  0  0  0  0  0  0  0  0  0  0
  1  2  1  0
  2  3  1  0
  2  4  2  0
  4  5  1  0
  4  6  1  0
  3  7  2  0
  6  8  2  0
  6  9  1  0
  7  9  1  0
  7 10  1  0
 10 11  1  0
 10 12  2  0
  9 13  1  6
 12 14  1  0
 13 14  2  0
 14 15  1  0
 15 16  2  0
 15 17  1  0
M  END
