mac-x0415-mac-x0472
     RDKit          3D

 30 33  0  0  0  0  0  0  0  0999 V2000
    0.0380   11.0830   -3.1850 O   0  0  0  0  0  0  0  0  0  0  0  0
    0.7940   12.2020   -3.2130 C   0  0  0  0  0  0  0  0  0  0  0  0
    1.2530   12.6420   -2.1690 O   0  0  0  0  0  0  0  0  0  0  0  0
    0.9460   12.7770   -4.6140 C   0  0  0  0  0  0  0  0  0  0  0  0
    0.7400   14.2420   -4.5610 C   0  0  0  0  0  0  0  0  0  0  0  0
    1.7910   15.2270   -4.3420 C   0  0  0  0  0  0  0  0  0  0  0  0
   -0.3040   15.0600   -4.6890 C   0  0  0  0  0  0  0  0  0  0  0  0
    1.4750   16.4840   -4.3230 N   0  0  0  0  0  0  0  0  0  0  0  0
    0.0540   16.4720   -4.4560 C   0  0  1  0  0  0  0  0  0  0  0  0
   -1.6790   14.8180   -4.9590 C   0  0  0  0  0  0  0  0  0  0  0  0
   -0.6400   17.4650   -5.3130 C   0  0  0  0  0  0  0  0  0  0  0  0
   -2.4350   15.8220   -5.4810 C   0  0  0  0  0  0  0  0  0  0  0  0
   -3.7620   15.7060   -5.7630 O   0  0  0  0  0  0  0  0  0  0  0  0
   -1.8560   17.1350   -5.7880 C   0  0  0  0  0  0  0  0  0  0  0  0
   -4.2900   14.6470   -4.9880 C   0  0  0  0  0  0  0  0  0  0  0  0
   -3.3540   14.2890   -3.9110 N   0  0  0  0  0  0  0  0  0  0  0  0
   -3.9030   14.4000   -2.5130 S   0  0  2  0  0  0  0  0  0  0  0  0
   -4.9190   15.3340   -2.1170 O   0  0  0  0  0  0  0  0  0  0  0  0
   -2.5400   14.6720   -1.5670 N   0  0  0  0  0  0  0  0  0  0  0  0
   -4.4470   12.7540   -2.1890 C   0  0  0  0  0  0  0  0  0  0  0  0
   -2.8110   14.8110   -0.2580 C   0  0  0  0  0  0  0  0  0  0  0  0
   -3.6500   11.6870   -2.6140 C   0  0  0  0  0  0  0  0  0  0  0  0
   -5.6490   12.5360   -1.5300 C   0  0  0  0  0  0  0  0  0  0  0  0
   -2.0010   14.4440    0.7130 N   0  0  0  0  0  0  0  0  0  0  0  0
   -4.2970   15.5000    0.3060 S   0  0  0  0  0  0  0  0  0  0  0  0
   -4.0720   10.3840   -2.3800 C   0  0  0  0  0  0  0  0  0  0  0  0
   -6.0620   11.2300   -1.3000 C   0  0  0  0  0  0  0  0  0  0  0  0
   -3.7290   15.2350    1.8890 C   0  0  0  0  0  0  0  0  0  0  0  0
   -2.5350   14.6870    1.9560 N   0  0  0  0  0  0  0  0  0  0  0  0
   -5.2810   10.1620   -1.7250 C   0  0  0  0  0  0  0  0  0  0  0  0
  1  2  1  0
  2  3  2  0
  2  4  1  0
  4  5  1  0
  5  6  1  0
  5  7  2  0
  6  8  2  0
  7  9  1  0
  8  9  1  0
  7 10  1  0
  9 11  1  6
 10 12  2  0
 12 13  1  0
 11 14  2  0
 12 14  1  0
 13 15  1  0
 15 16  1  0
 16 17  2  0
 17 18  2  0
 17 19  1  1
 17 20  1  0
 19 21  1  0
 20 22  2  0
 20 23  1  0
 21 24  2  0
 21 25  1  0
 22 26  1  0
 23 27  2  0
 25 28  1  0
 24 29  1  0
 28 29  2  0
 26 30  2  0
 27 30  1  0
M  END
