mac-x0115-mac-x0271
     RDKit          3D

 29 32  0  0  0  0  0  0  0  0999 V2000
   -1.3780   18.6180   -5.1580 C   0  0  0  0  0  0  0  0  0  0  0  0
   -0.4110   17.6290   -5.7680 C   0  0  0  0  0  0  0  0  0  0  0  0
    1.0210   17.9710   -5.4030 C   0  0  0  0  0  0  0  0  0  0  0  0
   -0.7080   16.3110   -5.2820 O   0  0  0  0  0  0  0  0  0  0  0  0
    0.3610   15.6230   -4.6090 C   0  0  0  0  0  0  0  0  0  0  0  0
   -0.2010   14.3090   -4.0300 C   0  0  0  0  0  0  0  0  0  0  0  0
   -0.2130   14.2760   -2.5360 N   0  0  0  0  0  0  0  0  0  0  0  0
    1.0490   14.2480   -1.8590 C   0  0  0  0  0  0  0  0  0  0  0  0
   -1.3500   14.7390   -1.8140 C   0  0  0  0  0  0  0  0  0  0  0  0
    2.5310   13.7350   -2.4510 S   0  0  0  0  0  0  0  0  0  0  0  0
    1.0890   14.6930   -0.5650 N   0  0  0  0  0  0  0  0  0  0  0  0
   -1.2200   14.8660   -0.3250 C   0  0  1  0  0  0  0  0  0  0  0  0
   -2.6530   15.0630   -2.0530 C   0  0  0  0  0  0  0  0  0  0  0  0
   -3.6150   15.0960   -2.9870 O   0  0  0  0  0  0  0  0  0  0  0  0
    0.0800   15.2900    0.1100 C   0  0  0  0  0  0  0  0  0  0  0  0
   -2.3580   15.5610    0.2480 N   0  0  0  0  0  0  0  0  0  0  0  0
   -3.1180   15.5900   -0.7660 C   0  0  0  0  0  0  0  0  0  0  0  0
    0.2570   16.0580    0.9790 O   0  0  0  0  0  0  0  0  0  0  0  0
   -4.5460   14.9990   -1.9620 C   0  0  0  0  0  0  0  0  0  0  0  0
   -5.9010   15.3260   -1.9790 C   0  0  0  0  0  0  0  0  0  0  0  0
   -3.9710   14.5120   -0.7760 C   0  0  0  0  0  0  0  0  0  0  0  0
   -6.6190   15.1650   -0.7700 C   0  0  0  0  0  0  0  0  0  0  0  0
   -4.6890   14.3650    0.3940 C   0  0  0  0  0  0  0  0  0  0  0  0
   -6.0230   14.7000    0.4070 C   0  0  0  0  0  0  0  0  0  0  0  0
   -7.9930   15.4910   -0.7460 O   0  0  0  0  0  0  0  0  0  0  0  0
   -6.8080   14.5710    1.6200 C   0  0  0  0  0  0  0  0  0  0  0  0
   -8.7910   15.1800    0.3570 C   0  0  0  0  0  0  0  0  0  0  0  0
  -10.0130   15.2150    0.3270 O   0  0  0  0  0  0  0  0  0  0  0  0
   -8.1070   14.8000    1.5940 C   0  0  0  0  0  0  0  0  0  0  0  0
  1  2  1  0
  2  3  1  0
  2  4  1  0
  4  5  1  0
  5  6  1  0
  6  7  1  0
  7  8  1  0
  7  9  1  0
  8 10  2  0
  8 11  1  0
  9 12  1  0
  9 13  2  0
 13 14  1  0
 11 15  1  0
 12 15  1  0
 12 16  1  6
 13 17  1  0
 16 17  2  0
 15 18  2  0
 14 19  1  0
 19 20  2  0
 19 21  1  0
 20 22  1  0
 21 23  2  0
 22 24  2  0
 23 24  1  0
 22 25  1  0
 24 26  1  0
 25 27  1  0
 27 28  2  0
 26 29  2  0
 27 29  1  0
M  END
