mac-x0115-mac-x0341
     RDKit          3D

 24 26  0  0  0  0  0  0  0  0999 V2000
   -1.4430   18.6080   -5.2350 C   0  0  0  0  0  0  0  0  0  0  0  0
   -0.4430   17.6350   -5.8130 C   0  0  0  0  0  0  0  0  0  0  0  0
    0.9870   18.0620   -5.5270 C   0  0  0  0  0  0  0  0  0  0  0  0
   -0.6540   16.3330   -5.2440 O   0  0  0  0  0  0  0  0  0  0  0  0
    0.4830   15.7340   -4.5980 C   0  0  0  0  0  0  0  0  0  0  0  0
    0.0290   14.4320   -3.9050 C   0  0  0  0  0  0  0  0  0  0  0  0
   -0.2440   14.5280   -2.4380 N   0  0  0  0  0  0  0  0  0  0  0  0
    0.7810   14.3110   -1.5200 C   0  0  0  0  0  0  0  0  0  0  0  0
   -1.4640   15.2670   -2.0200 C   0  0  2  0  0  0  0  0  0  0  0  0
    2.4040   14.0570   -1.8890 S   0  0  0  0  0  0  0  0  0  0  0  0
    0.4360   14.3020   -0.1890 N   0  0  0  0  0  0  0  0  0  0  0  0
   -1.4970   15.7260   -0.5670 C   0  0  2  0  0  0  0  0  0  0  0  0
   -2.8230   14.5350   -2.2010 C   0  0  0  0  0  0  0  0  0  0  0  0
   -0.6870   14.8610    0.3800 C   0  0  0  0  0  0  0  0  0  0  0  0
   -2.9360   15.8240   -0.2010 N   0  0  0  0  0  0  0  0  0  0  0  0
   -3.6930   14.7860   -0.9400 C   0  0  1  0  0  0  0  0  0  0  0  0
   -0.9920   14.6570    1.5710 O   0  0  0  0  0  0  0  0  0  0  0  0
   -5.1930   15.1440   -1.2330 C   0  0  0  0  0  0  0  0  0  0  0  0
   -3.8360   13.5930    0.0010 C   0  0  0  0  0  0  0  0  0  0  0  0
   -5.6420   15.5240   -2.3100 O   0  0  0  0  0  0  0  0  0  0  0  0
   -6.0600   14.9610   -0.1770 N   0  0  0  0  0  0  0  0  0  0  0  0
   -4.5090   13.9710    1.2600 N   0  0  0  0  0  0  0  0  0  0  0  0
   -5.5220   14.9620    1.1220 C   0  0  2  0  0  0  0  0  0  0  0  0
   -6.5720   14.5660    1.9990 N   0  0  0  0  0  0  0  0  0  0  0  0
  1  2  1  0
  2  3  1  0
  2  4  1  0
  4  5  1  0
  5  6  1  0
  6  7  1  0
  7  8  1  0
  7  9  1  0
  8 10  2  0
  8 11  1  0
  9 12  1  0
  9 13  1  1
 11 14  1  0
 12 14  1  0
 12 15  1  1
 16 13  1  6
 15 16  1  0
 14 17  2  0
 16 18  1  0
 16 19  1  0
 18 20  2  0
 18 21  1  0
 19 22  1  0
 21 23  1  0
 22 23  1  0
 23 24  1  1
M  END
