mac-x0394-diamond-x0962_0_A
     RDKit          3D

 21 22  0  0  0  0  0  0  0  0999 V2000
    1.0480   18.3300   -4.8590 Cl  0  0  0  0  0  0  0  0  0  0  0  0
    0.3260   16.8040   -4.8940 C   0  0  0  0  0  0  0  0  0  0  0  0
   -1.0170   16.7470   -5.1970 C   0  0  0  0  0  0  0  0  0  0  0  0
    1.0790   15.6670   -4.6260 C   0  0  0  0  0  0  0  0  0  0  0  0
    0.4670   14.4150   -4.6650 C   0  0  0  0  0  0  0  0  0  0  0  0
   -1.6490   15.5150   -5.2430 C   0  0  0  0  0  0  0  0  0  0  0  0
   -3.1090   15.4140   -5.5760 C   0  0  0  0  0  0  0  0  0  0  0  0
    1.2480   13.1560   -4.3740 C   0  0  0  0  0  0  0  0  0  0  0  0
   -0.8940   14.3550   -4.9780 C   0  0  0  0  0  0  0  0  0  0  0  0
    0.8370   12.5150   -3.0650 C   0  0  0  0  0  0  0  0  0  0  0  0
   -3.7850   14.2710   -4.8380 C   0  0  0  0  0  0  0  0  0  0  0  0
    0.2130   11.3320   -3.2460 O   0  0  0  0  0  0  0  0  0  0  0  0
    1.0060   12.9440   -1.9360 O   0  0  0  0  0  0  0  0  0  0  0  0
   -2.8470   13.6640   -3.7980 C   0  0  0  0  0  0  0  0  0  0  0  0
   -3.0640   14.2720   -2.5000 C   0  0  0  0  0  0  0  0  0  0  0  0
   -3.4050   14.6560   -1.4440 C   0  0  0  0  0  0  0  0  0  0  0  0
   -4.0110   14.9290   -0.2280 C   0  0  0  0  0  0  0  0  0  0  0  0
   -3.4390   15.3650    0.9240 N   0  0  0  0  0  0  0  0  0  0  0  0
   -5.3430   14.7910    0.0440 C   0  0  0  0  0  0  0  0  0  0  0  0
   -4.4460   15.4700    1.8360 C   0  0  0  0  0  0  0  0  0  0  0  0
   -5.6090   15.1200    1.3310 N   0  0  0  0  0  0  0  0  0  0  0  0
  1  2  1  0
  2  3  2  0
  2  4  1  0
  4  5  2  0
  3  6  1  0
  6  7  1  0
  5  8  1  0
  5  9  1  0
  6  9  2  0
  8 10  1  0
  7 11  1  0
 10 12  1  0
 10 13  2  0
 11 14  1  0
 14 15  1  0
 15 16  3  0
 16 17  1  0
 17 18  1  0
 17 19  2  0
 18 20  1  0
 19 21  1  0
 20 21  2  0
M  END
