mac-x0436-diamond-x0689_0_A
     RDKit          3D

 25 27  0  0  0  0  0  0  0  0999 V2000
    1.1290   11.5280   -2.7870 O   0  0  0  0  0  0  0  0  0  0  0  0
    1.2080   12.8000   -3.2230 C   0  0  0  0  0  0  0  0  0  0  0  0
    1.0700   13.8230   -2.4690 N   0  0  0  0  0  0  0  0  0  0  0  0
    1.4730   13.0070   -4.6770 C   0  0  0  0  0  0  0  0  0  0  0  0
    0.1670   13.2730   -5.3820 C   0  0  0  0  0  0  0  0  0  0  0  0
    0.8650   13.5190   -1.0840 C   0  0  0  0  0  0  0  0  0  0  0  0
   -0.5200   11.9720   -5.6950 C   0  0  0  0  0  0  0  0  0  0  0  0
   -0.3440   14.0380   -0.4010 C   0  0  0  0  0  0  0  0  0  0  0  0
   -1.7600   11.6070   -4.8790 C   0  0  0  0  0  0  0  0  0  0  0  0
   -0.0370   11.2190   -6.6300 N   0  0  0  0  0  0  0  0  0  0  0  0
   -1.4600   14.4710   -1.0560 C   0  0  0  0  0  0  0  0  0  0  0  0
   -0.4210   14.1050    0.9790 C   0  0  0  0  0  0  0  0  0  0  0  0
   -2.1390   12.3380   -3.9740 O   0  0  0  0  0  0  0  0  0  0  0  0
   -2.3850   10.4380   -5.2330 N   0  0  0  0  0  0  0  0  0  0  0  0
   -0.6940   10.0200   -6.9170 C   0  0  0  0  0  0  0  0  0  0  0  0
   -2.5510   14.9240   -0.4260 N   0  0  0  0  0  0  0  0  0  0  0  0
   -1.4860   14.5490    1.6620 N   0  0  0  0  0  0  0  0  0  0  0  0
   -1.8600    9.6170   -6.2380 C   0  0  0  0  0  0  0  0  0  0  0  0
   -0.1700    9.2060   -7.9150 C   0  0  0  0  0  0  0  0  0  0  0  0
   -2.5230   14.9480    0.9140 C   0  0  0  0  0  0  0  0  0  0  0  0
   -3.6170   15.4090    1.6120 N   0  0  0  0  0  0  0  0  0  0  0  0
   -0.7980    8.0010   -8.2410 C   0  0  0  0  0  0  0  0  0  0  0  0
   -2.4920    8.4160   -6.5550 C   0  0  0  0  0  0  0  0  0  0  0  0
   -4.8820   14.9680    1.0980 C   0  0  0  0  0  0  0  0  0  0  0  0
   -1.9550    7.6100   -7.5620 C   0  0  0  0  0  0  0  0  0  0  0  0
  1  2  1  0
  2  3  2  3
  2  4  1  0
  4  5  1  0
  3  6  1  0
  5  7  1  0
  6  8  1  0
  7  9  1  0
  7 10  2  0
  8 11  2  0
  8 12  1  0
  9 13  2  0
  9 14  1  0
 10 15  1  0
 11 16  1  0
 12 17  2  0
 14 18  1  0
 15 18  2  0
 15 19  1  0
 16 20  2  0
 17 20  1  0
 20 21  1  0
 19 22  2  0
 18 23  1  0
 21 24  1  0
 22 25  1  0
 23 25  2  0
M  END
