mac-x0404-mac-x0437
     RDKit          3D

 24 27  0  0  0  0  0  0  0  0999 V2000
    0.6040   13.0340   -1.8230 O   0  0  0  0  0  0  0  0  0  0  0  0
    0.7740   12.2860   -2.9430 C   0  0  0  0  0  0  0  0  0  0  0  0
    0.5010   11.0900   -2.9260 O   0  0  0  0  0  0  0  0  0  0  0  0
    1.3220   13.1240   -4.0910 C   0  0  0  0  0  0  0  0  0  0  0  0
    0.3770   13.3320   -5.2750 N   0  0  0  0  0  0  0  0  0  0  0  0
   -0.5670   14.3840   -5.1070 C   0  0  0  0  0  0  0  0  0  0  0  0
   -0.5310   12.2410   -5.8230 N   0  0  0  0  0  0  0  0  0  0  0  0
   -0.3670   15.7890   -5.2410 C   0  0  0  0  0  0  0  0  0  0  0  0
   -1.8340   13.8760   -4.8220 C   0  0  0  0  0  0  0  0  0  0  0  0
   -1.6320   11.8010   -4.9100 C   0  0  0  0  0  0  0  0  0  0  0  0
    0.1070   10.9680   -6.0420 C   0  0  1  0  0  0  0  0  0  0  0  0
   -1.5250   16.5880   -5.1080 C   0  0  0  0  0  0  0  0  0  0  0  0
   -2.9180   14.6770   -4.6810 C   0  0  0  0  0  0  0  0  0  0  0  0
    0.8460   16.4480   -5.5090 C   0  0  0  0  0  0  0  0  0  0  0  0
   -2.2140   10.6260   -5.5450 N   0  0  0  0  0  0  0  0  0  0  0  0
   -0.9840    9.8720   -5.8540 C   0  0  1  0  0  0  0  0  0  0  0  0
    0.8440   10.9220   -7.3550 C   0  0  0  0  0  0  0  0  0  0  0  0
   -2.7520   16.0190   -4.8310 C   0  0  0  0  0  0  0  0  0  0  0  0
   -1.4570   17.9620   -5.2620 C   0  0  0  0  0  0  0  0  0  0  0  0
    0.9010   17.8320   -5.6610 C   0  0  0  0  0  0  0  0  0  0  0  0
   -1.1820    8.9430   -7.0170 C   0  0  0  0  0  0  0  0  0  0  0  0
    0.5770   10.0150   -8.3100 C   0  0  0  0  0  0  0  0  0  0  0  0
   -0.2570   18.5730   -5.5440 C   0  0  0  0  0  0  0  0  0  0  0  0
   -0.4570    9.0170   -8.1370 C   0  0  0  0  0  0  0  0  0  0  0  0
  1  2  1  0
  2  3  2  0
  2  4  1  0
  4  5  1  0
  5  6  1  0
  5  7  1  0
  6  8  1  0
  6  9  2  0
  7 10  1  0
  7 11  1  0
  8 12  2  0
  9 13  1  0
  8 14  1  0
 10 15  1  0
 11 16  1  0
 15 16  1  0
 11 17  1  6
 12 18  1  0
 13 18  2  0
 12 19  1  0
 14 20  2  0
 16 21  1  6
 17 22  2  0
 19 23  2  0
 20 23  1  0
 21 24  2  0
 22 24  1  0
M  END
