mac-x0441-mac-x0361
     RDKit          3D

 29 31  0  0  0  0  0  0  0  0999 V2000
    0.4600   10.9120   -3.4010 O   0  0  0  0  0  0  0  0  0  0  0  0
    0.7880   12.2120   -3.5230 C   0  0  0  0  0  0  0  0  0  0  0  0
    1.2910   12.7800   -2.5680 O   0  0  0  0  0  0  0  0  0  0  0  0
    0.4760   12.8240   -4.8710 C   0  0  2  0  0  0  0  0  0  0  0  0
   -0.6180   13.9050   -4.7550 C   0  0  0  0  0  0  0  0  0  0  0  0
    0.1870   11.8290   -5.9080 N   0  0  0  0  0  0  0  0  0  0  0  0
   -1.2960   13.9330   -3.3750 C   0  0  0  0  0  0  0  0  0  0  0  0
    0.9590   11.8280   -7.0320 N   0  0  0  0  0  0  0  0  0  0  0  0
   -0.7720   10.8510   -5.9530 C   0  0  0  0  0  0  0  0  0  0  0  0
   -2.1110   15.1120   -3.2720 O   0  0  0  0  0  0  0  0  0  0  0  0
    0.4650   10.8280   -7.8060 C   0  0  0  0  0  0  0  0  0  0  0  0
   -0.6070   10.2010   -7.1550 C   0  0  0  0  0  0  0  0  0  0  0  0
   -1.8120   10.5090   -4.9480 C   0  0  0  0  0  0  0  0  0  0  0  0
    0.9490   10.4030   -9.1760 C   0  0  0  0  0  0  0  0  0  0  0  0
   -1.4510    9.0610   -7.6130 C   0  0  0  0  0  0  0  0  0  0  0  0
   -2.9400    9.7280   -5.6490 C   0  0  0  0  0  0  0  0  0  0  0  0
   -3.2200   15.0350   -2.4640 C   0  0  0  0  0  0  0  0  0  0  0  0
    1.6380    9.2320   -9.1660 F   0  0  0  0  0  0  0  0  0  0  0  0
   -0.1030   10.1810  -10.0040 F   0  0  0  0  0  0  0  0  0  0  0  0
    1.6810   11.3050   -9.8570 F   0  0  0  0  0  0  0  0  0  0  0  0
   -2.3880    8.5690   -6.4970 C   0  0  0  0  0  0  0  0  0  0  0  0
   -2.9710   14.8680   -1.0950 C   0  0  0  0  0  0  0  0  0  0  0  0
   -4.5370   15.1070   -2.8970 C   0  0  0  0  0  0  0  0  0  0  0  0
   -4.0240   14.7730   -0.1760 C   0  0  0  0  0  0  0  0  0  0  0  0
   -5.5970   15.0160   -1.9880 C   0  0  0  0  0  0  0  0  0  0  0  0
   -5.3490   14.8440   -0.6180 C   0  0  0  0  0  0  0  0  0  0  0  0
   -6.4690   14.7330    0.3640 C   0  0  0  0  0  0  0  0  0  0  0  0
   -6.2250   14.8520    1.7130 N   0  0  0  0  0  0  0  0  0  0  0  0
   -7.6170   14.5420   -0.0200 O   0  0  0  0  0  0  0  0  0  0  0  0
  1  2  1  0
  2  3  2  0
  2  4  1  0
  4  5  1  1
  4  6  1  0
  5  7  1  0
  6  8  1  0
  6  9  1  0
  7 10  1  0
  8 11  2  0
  9 12  2  0
 11 12  1  0
  9 13  1  0
 11 14  1  0
 12 15  1  0
 13 16  1  0
 10 17  1  0
 14 18  1  0
 14 19  1  0
 14 20  1  0
 15 21  1  0
 16 21  1  0
 17 22  2  0
 17 23  1  0
 22 24  1  0
 23 25  2  0
 24 26  2  0
 25 26  1  0
 26 27  1  0
 27 28  1  0
 27 29  2  0
M  END
