mac-x0231-mac-x0223
     RDKit          3D

 17 18  0  0  0  0  0  0  0  0999 V2000
    0.4940   10.7020   -3.2400 O   0  0  0  0  0  0  0  0  0  0  0  0
    1.1080   11.8910   -3.1610 C   0  0  0  0  0  0  0  0  0  0  0  0
    1.3230   12.4060   -2.0750 O   0  0  0  0  0  0  0  0  0  0  0  0
    1.4760   12.5040   -4.4770 C   0  0  0  0  0  0  0  0  0  0  0  0
    1.0590   13.9410   -4.5110 C   0  0  0  0  0  0  0  0  0  0  0  0
   -0.3880   14.2940   -4.6500 C   0  0  0  0  0  0  0  0  0  0  0  0
    2.0070   14.8150   -4.3580 N   0  0  0  0  0  0  0  0  0  0  0  0
   -0.7200   15.6420   -4.7940 C   0  0  0  0  0  0  0  0  0  0  0  0
    1.6160   16.1050   -4.3520 N   0  0  0  0  0  0  0  0  0  0  0  0
   -1.4010   13.3290   -4.6270 C   0  0  0  0  0  0  0  0  0  0  0  0
    0.4260   16.5600   -4.8600 C   0  0  0  0  0  0  0  0  0  0  0  0
   -2.0610   16.0460   -4.8810 C   0  0  0  0  0  0  0  0  0  0  0  0
   -2.7380   13.7220   -4.7350 C   0  0  0  0  0  0  0  0  0  0  0  0
    0.2180   17.6720   -5.4450 N   0  0  0  0  0  0  0  0  0  0  0  0
   -2.4130   17.3850   -4.9900 O   0  0  0  0  0  0  0  0  0  0  0  0
   -3.0700   15.0740   -4.8550 C   0  0  0  0  0  0  0  0  0  0  0  0
    1.2990   18.5740   -5.6360 C   0  0  0  0  0  0  0  0  0  0  0  0
  1  2  1  0
  2  3  2  0
  2  4  1  0
  4  5  1  0
  5  6  1  0
  5  7  2  0
  6  8  2  0
  7  9  1  0
  6 10  1  0
  8 11  1  0
  9 11  1  0
  8 12  1  0
 10 13  2  0
 11 14  2  3
 12 15  1  0
 12 16  2  0
 13 16  1  0
 14 17  1  0
M  END
