mac-x0568-mac-x0441
     RDKit          3D

 30 32  0  0  0  0  0  0  0  0999 V2000
   -8.6400   14.5610    1.2820 C   0  0  0  0  0  0  0  0  0  0  0  0
   -7.2700   14.6730    0.6850 C   0  0  0  0  0  0  0  0  0  0  0  0
   -6.1520   14.6470    1.5120 C   0  0  0  0  0  0  0  0  0  0  0  0
   -7.1750   14.8020   -0.6550 N   0  0  0  0  0  0  0  0  0  0  0  0
   -5.9280   14.9030   -1.1860 C   0  0  0  0  0  0  0  0  0  0  0  0
   -4.8810   14.7510    0.9440 C   0  0  0  0  0  0  0  0  0  0  0  0
   -4.7540   14.8790   -0.4380 C   0  0  0  0  0  0  0  0  0  0  0  0
   -3.4120   14.9770   -1.0620 C   0  0  0  0  0  0  0  0  0  0  0  0
   -3.3080   15.3990   -2.2100 O   0  0  0  0  0  0  0  0  0  0  0  0
   -2.3440   14.5520   -0.2850 N   0  0  0  0  0  0  0  0  0  0  0  0
   -0.9570   14.8880   -0.5360 C   0  0  0  0  0  0  0  0  0  0  0  0
   -0.0370   13.6960   -0.5690 C   0  0  0  0  0  0  0  0  0  0  0  0
    0.9620   13.7960   -1.7220 C   0  0  0  0  0  0  0  0  0  0  0  0
    1.0770   12.4630   -2.2680 N   0  0  0  0  0  0  0  0  0  0  0  0
    0.8860   12.0860   -3.4710 C   0  0  0  0  0  0  0  0  0  0  0  0
    1.0550   10.7760   -3.5610 O   0  0  0  0  0  0  0  0  0  0  0  0
    0.5120   12.7960   -4.7630 C   0  0  0  0  0  0  0  0  0  0  0  0
    0.1690   11.9140   -5.8910 N   0  0  0  0  0  0  0  0  0  0  0  0
    0.9820   11.8820   -6.9900 N   0  0  0  0  0  0  0  0  0  0  0  0
   -0.8980   11.0650   -6.0320 C   0  0  0  0  0  0  0  0  0  0  0  0
    0.4070   10.9900   -7.8450 C   0  0  0  0  0  0  0  0  0  0  0  0
   -0.7670   10.4730   -7.2680 C   0  0  0  0  0  0  0  0  0  0  0  0
   -2.0060   10.7950   -5.0700 C   0  0  0  0  0  0  0  0  0  0  0  0
    0.8810   10.5470   -9.2190 C   0  0  0  0  0  0  0  0  0  0  0  0
   -1.7210    9.4740   -7.8070 C   0  0  0  0  0  0  0  0  0  0  0  0
   -3.0620    9.8500   -5.6910 C   0  0  0  0  0  0  0  0  0  0  0  0
    1.5390    9.3590   -9.1580 F   0  0  0  0  0  0  0  0  0  0  0  0
   -0.1450   10.3350  -10.0730 F   0  0  0  0  0  0  0  0  0  0  0  0
    1.6870   11.3860   -9.8920 F   0  0  0  0  0  0  0  0  0  0  0  0
   -2.4680    8.8000   -6.6450 C   0  0  0  0  0  0  0  0  0  0  0  0
  1  2  1  0
  2  3  2  0
  2  4  1  0
  4  5  2  0
  3  6  1  0
  5  7  1  0
  6  7  2  0
  7  8  1  0
  8  9  2  0
  8 10  1  0
 10 11  1  0
 11 12  1  0
 12 13  1  0
 13 14  1  0
 14 15  2  3
 15 16  1  0
 15 17  1  0
 17 18  1  0
 18 19  1  0
 18 20  1  0
 19 21  2  0
 20 22  2  0
 21 22  1  0
 20 23  1  0
 21 24  1  0
 22 25  1  0
 23 26  1  0
 24 27  1  0
 24 28  1  0
 24 29  1  0
 25 30  1  0
 26 30  1  0
M  END
