mac-x0436-diamond-x0864_0_A
     RDKit          3D

 18 19  0  0  0  0  0  0  0  0999 V2000
    0.5620   11.2060   -2.9710 O   0  0  0  0  0  0  0  0  0  0  0  0
    1.2070   12.3880   -2.9480 C   0  0  0  0  0  0  0  0  0  0  0  0
    1.4890   12.9130   -1.8920 O   0  0  0  0  0  0  0  0  0  0  0  0
    1.4860   12.9340   -4.3210 C   0  0  0  0  0  0  0  0  0  0  0  0
    0.1940   13.1820   -5.0990 C   0  0  0  0  0  0  0  0  0  0  0  0
   -0.4470   11.8900   -5.5740 C   0  0  0  0  0  0  0  0  0  0  0  0
   -1.7700   11.4420   -5.0290 C   0  0  0  0  0  0  0  0  0  0  0  0
    0.1950   11.1860   -6.4650 N   0  0  0  0  0  0  0  0  0  0  0  0
   -2.3150   12.1870   -4.2190 O   0  0  0  0  0  0  0  0  0  0  0  0
    1.3270   11.5760   -6.9080 O   0  0  0  0  0  0  0  0  0  0  0  0
   -2.2510   10.2160   -5.4840 N   0  0  0  0  0  0  0  0  0  0  0  0
   -0.3730    9.9460   -6.9520 C   0  0  0  0  0  0  0  0  0  0  0  0
   -4.1040    9.9860   -5.7520 Br  0  0  0  0  0  0  0  0  0  0  0  0
   -1.5730    9.4930   -6.4450 C   0  0  0  0  0  0  0  0  0  0  0  0
    0.2950    9.2070   -7.9380 C   0  0  0  0  0  0  0  0  0  0  0  0
   -0.2550    8.0110   -8.4030 C   0  0  0  0  0  0  0  0  0  0  0  0
   -2.1170    8.2950   -6.9150 C   0  0  0  0  0  0  0  0  0  0  0  0
   -1.4650    7.5550   -7.8890 C   0  0  0  0  0  0  0  0  0  0  0  0
  1  2  1  0
  2  3  2  0
  2  4  1  0
  4  5  1  0
  5  6  1  0
  6  7  1  0
  6  8  2  0
  7  9  2  0
  8 10  1  0
  7 11  1  0
  8 12  1  0
 11 13  1  0
 11 14  1  0
 12 14  2  0
 12 15  1  0
 15 16  2  0
 14 17  1  0
 16 18  1  0
 17 18  2  0
M  CHG  2   8   1  10  -1
M  END
