mac-x0159-mac-x0124
     RDKit          3D

 17 19  0  0  0  0  0  0  0  0999 V2000
   -4.4170   15.0870    0.8850 N   0  0  0  0  0  0  0  0  0  0  0  0
   -3.3950   14.6540   -0.0550 C   0  0  2  0  0  0  0  0  0  0  0  0
   -2.0890   15.4350    0.1160 C   0  0  2  0  0  0  0  0  0  0  0  0
   -3.9730   14.9100   -1.3640 N   0  0  0  0  0  0  0  0  0  0  0  0
   -2.9970   15.3550   -2.3610 C   0  0  0  0  0  0  0  0  0  0  0  0
   -1.1020   15.0640   -0.9860 C   0  0  2  0  0  0  0  0  0  0  0  0
   -1.3120   15.3060    1.3400 N   0  0  0  0  0  0  0  0  0  0  0  0
   -1.6940   14.7190   -2.2410 N   0  0  0  0  0  0  0  0  0  0  0  0
   -0.2490   14.0730   -0.3670 N   0  0  0  0  0  0  0  0  0  0  0  0
   -0.0730   14.6460    0.9640 C   0  0  0  0  0  0  0  0  0  0  0  0
   -0.8900   14.6070   -3.4570 C   0  0  0  0  0  0  0  0  0  0  0  0
   -0.4560   15.8850   -4.1400 C   0  0  0  0  0  0  0  0  0  0  0  0
    0.8270   16.4050   -4.1480 C   0  0  0  0  0  0  0  0  0  0  0  0
   -1.3800   16.6540   -4.8470 N   0  0  0  0  0  0  0  0  0  0  0  0
   -0.7940   17.7130   -5.3660 C   0  0  0  0  0  0  0  0  0  0  0  0
    0.8750   17.8630   -5.0450 S   0  0  0  0  0  0  0  0  0  0  0  0
   -1.4820   18.7440   -6.1870 C   0  0  0  0  0  0  0  0  0  0  0  0
  2  1  1  1
  2  3  1  0
  2  4  1  0
  4  5  1  0
  3  6  1  0
  3  7  1  1
  5  8  1  0
  6  8  1  0
  6  9  1  1
  7 10  1  0
  9 10  1  0
  8 11  1  0
 11 12  1  0
 12 13  2  0
 12 14  1  0
 14 15  2  0
 13 16  1  0
 15 16  1  0
 15 17  1  0
M  END
