mac-x0522-mac-x0161
     RDKit          3D

 35 39  0  0  0  0  0  0  0  0999 V2000
    1.5760    9.3090  -11.0910 O   0  0  0  0  0  0  0  0  0  0  0  0
    2.6680    8.8640  -11.4310 C   0  0  0  0  0  0  0  0  0  0  0  0
    3.1840    7.8080  -10.7050 N   0  0  0  0  0  0  0  0  0  0  0  0
    3.3080    9.5390  -12.5930 C   0  0  0  0  0  0  0  0  0  0  0  0
    2.5760    7.2570   -9.5890 C   0  0  0  0  0  0  0  0  0  0  0  0
    4.4150    8.9770  -13.2370 C   0  0  0  0  0  0  0  0  0  0  0  0
    2.7870   10.7650  -13.0460 C   0  0  0  0  0  0  0  0  0  0  0  0
    2.9920    6.1760   -8.9570 N   0  0  0  0  0  0  0  0  0  0  0  0
    1.1850    7.9790   -8.9380 S   0  0  0  0  0  0  0  0  0  0  0  0
    4.9920    9.6400  -14.3240 C   0  0  0  0  0  0  0  0  0  0  0  0
    3.3690   11.4190  -14.1290 C   0  0  0  0  0  0  0  0  0  0  0  0
    1.0650    6.8040   -7.7080 C   0  0  0  0  0  0  0  0  0  0  0  0
    2.1290    5.9070   -7.8780 C   0  0  0  0  0  0  0  0  0  0  0  0
    4.4690   10.8580  -14.7690 C   0  0  0  0  0  0  0  0  0  0  0  0
   -0.0850    6.9240   -6.7130 C   0  0  0  0  0  0  0  0  0  0  0  0
   -0.0850    8.3020   -5.9990 C   0  0  0  0  0  0  0  0  0  0  0  0
   -1.4170    8.9640   -5.6400 C   0  0  0  0  0  0  0  0  0  0  0  0
   -1.2800   10.4380   -5.7250 N   0  0  0  0  0  0  0  0  0  0  0  0
   -2.0890   11.0060   -6.7870 C   0  0  0  0  0  0  0  0  0  0  0  0
   -0.9160   11.3310   -4.7190 C   0  0  0  0  0  0  0  0  0  0  0  0
   -1.3470   12.6820   -4.7630 C   0  0  0  0  0  0  0  0  0  0  0  0
   -0.1600   11.1380   -3.6210 N   0  0  0  0  0  0  0  0  0  0  0  0
   -0.8270   13.2930   -3.6530 C   0  0  0  0  0  0  0  0  0  0  0  0
   -0.1070   12.3620   -2.9570 O   0  0  0  0  0  0  0  0  0  0  0  0
   -0.9110   14.6850   -3.1250 C   0  0  0  0  0  0  0  0  0  0  0  0
   -1.7830   14.9120   -1.9620 N   0  0  0  0  0  0  0  0  0  0  0  0
   -3.2120   15.0770   -2.1880 C   0  0  0  0  0  0  0  0  0  0  0  0
   -1.4240   14.1440   -0.7990 C   0  0  2  0  0  0  0  0  0  0  0  0
   -3.9250   15.5450   -1.0130 N   0  0  0  0  0  0  0  0  0  0  0  0
   -2.2170   14.3790    0.4760 C   0  0  2  0  0  0  0  0  0  0  0  0
   -0.0670   14.5480   -0.4450 N   0  0  0  0  0  0  0  0  0  0  0  0
   -3.6810   14.7760    0.1820 C   0  0  1  0  0  0  0  0  0  0  0  0
   -1.4030   15.2690    1.2990 N   0  0  0  0  0  0  0  0  0  0  0  0
   -0.0700   14.8350    0.9720 C   0  0  0  0  0  0  0  0  0  0  0  0
   -4.2910   15.5490    1.2610 N   0  0  0  0  0  0  0  0  0  0  0  0
  1  2  2  0
  2  3  1  0
  2  4  1  0
  3  5  1  0
  4  6  2  0
  4  7  1  0
  5  8  2  0
  5  9  1  0
  6 10  1  0
  7 11  2  0
  9 12  1  0
  8 13  1  0
 12 13  2  0
 10 14  2  0
 11 14  1  0
 12 15  1  0
 15 16  1  0
 16 17  1  0
 17 18  1  0
 18 19  1  0
 18 20  1  0
 20 21  1  0
 20 22  2  0
 21 23  2  0
 22 24  1  0
 23 24  1  0
 23 25  1  0
 25 26  1  0
 26 27  1  0
 26 28  1  0
 27 29  1  0
 28 30  1  0
 28 31  1  1
 29 32  1  0
 30 32  1  0
 30 33  1  6
 31 34  1  0
 33 34  1  0
 32 35  1  1
M  END
