mac-x0373-mac-x0204
     RDKit          3D

 17 18  0  0  0  0  0  0  0  0999 V2000
    0.9020   13.4090   -1.5930 O   0  0  0  0  0  0  0  0  0  0  0  0
    0.0730   14.3310   -2.1240 C   0  0  0  0  0  0  0  0  0  0  0  0
    0.5240   15.4220   -2.4320 O   0  0  0  0  0  0  0  0  0  0  0  0
   -1.3550   13.8360   -2.2420 C   0  0  2  0  0  0  0  0  0  0  0  0
   -1.7460   13.0260   -3.4710 C   0  0  0  0  0  0  0  0  0  0  0  0
   -2.4640   14.5440   -1.4890 C   0  0  0  0  0  0  0  0  0  0  0  0
   -1.8010   13.4910   -4.8060 C   0  0  0  0  0  0  0  0  0  0  0  0
   -2.0800   11.6840   -3.2210 C   0  0  0  0  0  0  0  0  0  0  0  0
   -3.5740   15.0930   -2.1480 C   0  0  0  0  0  0  0  0  0  0  0  0
   -2.3840   14.6310   -0.0930 C   0  0  0  0  0  0  0  0  0  0  0  0
   -1.5130   14.8100   -5.1320 O   0  0  0  0  0  0  0  0  0  0  0  0
   -2.1630   12.6060   -5.8320 C   0  0  0  0  0  0  0  0  0  0  0  0
   -2.4450   10.8180   -4.2420 C   0  0  0  0  0  0  0  0  0  0  0  0
   -4.5800   15.7050   -1.4090 C   0  0  0  0  0  0  0  0  0  0  0  0
   -3.3880   15.2460    0.6370 C   0  0  0  0  0  0  0  0  0  0  0  0
   -2.4820   11.2750   -5.5450 C   0  0  0  0  0  0  0  0  0  0  0  0
   -4.4780   15.7750   -0.0260 C   0  0  0  0  0  0  0  0  0  0  0  0
  1  2  1  0
  2  3  2  0
  4  2  1  6
  4  5  1  0
  4  6  1  0
  5  7  2  0
  5  8  1  0
  6  9  2  0
  6 10  1  0
  7 11  1  0
  7 12  1  0
  8 13  2  0
  9 14  1  0
 10 15  2  0
 12 16  2  0
 13 16  1  0
 14 17  2  0
 15 17  1  0
M  END
