mac-x0255-mac-x0451
     RDKit          3D

 24 27  0  0  0  0  0  0  0  0999 V2000
    0.9390   12.9520   -1.5690 O   0  0  0  0  0  0  0  0  0  0  0  0
    0.6190   12.1850   -2.6310 C   0  0  0  0  0  0  0  0  0  0  0  0
    0.0690   11.1110   -2.4710 O   0  0  0  0  0  0  0  0  0  0  0  0
    1.0390   12.8170   -3.9230 C   0  0  0  0  0  0  0  0  0  0  0  0
    0.4240   14.1660   -4.1990 C   0  0  0  0  0  0  0  0  0  0  0  0
   -0.5320   14.9620   -3.5950 C   0  0  0  0  0  0  0  0  0  0  0  0
    0.9900   14.9420   -5.5440 S   0  0  0  0  0  0  0  0  0  0  0  0
   -1.1350   14.5340   -2.4520 O   0  0  0  0  0  0  0  0  0  0  0  0
   -0.7600   16.2000   -4.2940 C   0  0  0  0  0  0  0  0  0  0  0  0
    0.0190   16.3230   -5.3760 C   0  0  0  0  0  0  0  0  0  0  0  0
   -1.6080   17.2560   -4.0580 C   0  0  0  0  0  0  0  0  0  0  0  0
   -0.0280   17.4660   -6.1990 C   0  0  0  0  0  0  0  0  0  0  0  0
   -2.3930   14.7270   -1.8860 C   0  0  0  0  0  0  0  0  0  0  0  0
   -1.6700   18.3920   -4.8790 C   0  0  0  0  0  0  0  0  0  0  0  0
   -0.8800   18.4900   -5.9410 C   0  0  0  0  0  0  0  0  0  0  0  0
   -3.5610   14.9530   -2.6360 C   0  0  0  0  0  0  0  0  0  0  0  0
   -2.4540   14.6610   -0.4970 C   0  0  0  0  0  0  0  0  0  0  0  0
   -3.6770   14.7960    0.1280 C   0  0  0  0  0  0  0  0  0  0  0  0
   -4.8050   15.0910   -1.9760 C   0  0  0  0  0  0  0  0  0  0  0  0
   -4.8630   14.9980   -0.5630 C   0  0  0  0  0  0  0  0  0  0  0  0
   -3.9820   14.7350    1.7970 S   0  0  0  0  0  0  0  0  0  0  0  0
   -5.6520   14.9470    1.4950 C   0  0  0  0  0  0  0  0  0  0  0  0
   -5.9910   15.0800    0.2340 N   0  0  0  0  0  0  0  0  0  0  0  0
   -6.5430   14.9740    2.5030 N   0  0  0  0  0  0  0  0  0  0  0  0
  1  2  1  0
  2  3  2  0
  2  4  1  0
  4  5  1  0
  5  6  2  0
  5  7  1  0
  6  8  1  0
  6  9  1  0
  7 10  1  0
  9 10  2  0
  9 11  1  0
 10 12  1  0
  8 13  1  0
 11 14  2  0
 12 15  2  0
 14 15  1  0
 13 16  2  0
 13 17  1  0
 17 18  2  0
 16 19  1  0
 18 20  1  0
 19 20  2  0
 18 21  1  0
 21 22  1  0
 20 23  1  0
 22 23  2  0
 22 24  1  0
M  END
