mac-x0321-diamond-x0689_0_A
     RDKit          3D

 17 18  0  0  0  0  0  0  0  0999 V2000
   -4.3510   15.5430    1.3730 C   0  0  0  0  0  0  0  0  0  0  0  0
   -3.3670   14.6370    1.8860 N   0  0  0  0  0  0  0  0  0  0  0  0
   -2.2500   14.4430    1.1270 C   0  0  0  0  0  0  0  0  0  0  0  0
   -4.4360   15.3900   -0.1260 C   0  0  0  0  0  0  0  0  0  0  0  0
   -3.2660   15.1760   -0.8660 C   0  0  0  0  0  0  0  0  0  0  0  0
   -5.6550   15.4540   -0.8070 C   0  0  0  0  0  0  0  0  0  0  0  0
   -3.2940   15.0210   -2.2500 C   0  0  0  0  0  0  0  0  0  0  0  0
   -5.6960   15.3050   -2.1880 C   0  0  0  0  0  0  0  0  0  0  0  0
   -2.2620   13.8900   -0.0900 N   0  0  0  0  0  0  0  0  0  0  0  0
   -1.1730   14.8740    1.7270 N   0  0  0  0  0  0  0  0  0  0  0  0
   -2.0680   14.7830   -3.0680 C   0  0  0  0  0  0  0  0  0  0  0  0
   -4.5190   15.0870   -2.9100 C   0  0  0  0  0  0  0  0  0  0  0  0
   -1.0800   13.7910   -0.7210 C   0  0  0  0  0  0  0  0  0  0  0  0
   -0.0270   14.7690    1.0670 C   0  0  0  0  0  0  0  0  0  0  0  0
   -0.9130   14.9500   -2.3950 O   0  0  0  0  0  0  0  0  0  0  0  0
   -2.0500   14.4660   -4.2410 O   0  0  0  0  0  0  0  0  0  0  0  0
    0.0950   14.2290   -0.1800 C   0  0  0  0  0  0  0  0  0  0  0  0
  1  2  1  0
  2  3  1  0
  1  4  1  0
  4  5  2  0
  4  6  1  0
  5  7  1  0
  6  8  2  0
  3  9  2  0
  3 10  1  0
  7 11  1  0
  7 12  2  0
  8 12  1  0
  9 13  1  0
 10 14  2  0
 11 15  1  0
 11 16  2  0
 13 17  2  0
 14 17  1  0
M  END
