mac-x0373-mac-x0283
     RDKit          3D

 21 23  0  0  0  0  0  0  0  0999 V2000
    0.7620   13.6070   -1.3940 O   0  0  0  0  0  0  0  0  0  0  0  0
   -0.1040   14.4450   -2.0140 C   0  0  0  0  0  0  0  0  0  0  0  0
    0.2560   15.5480   -2.3680 O   0  0  0  0  0  0  0  0  0  0  0  0
   -1.4370   13.7410   -2.1460 C   0  0  2  0  0  0  0  0  0  0  0  0
   -1.7100   12.8840   -3.3700 C   0  0  0  0  0  0  0  0  0  0  0  0
   -2.7080   14.3060   -1.4180 C   0  0  2  0  0  0  0  0  0  0  0  0
   -1.0500   12.9710   -4.6070 C   0  0  0  0  0  0  0  0  0  0  0  0
   -2.7120   11.9150   -3.2110 C   0  0  0  0  0  0  0  0  0  0  0  0
   -3.5930   15.4860   -1.8480 C   0  0  0  0  0  0  0  0  0  0  0  0
   -2.4960   14.3890    0.0750 C   0  0  0  0  0  0  0  0  0  0  0  0
   -1.3920   12.1010   -5.6450 C   0  0  0  0  0  0  0  0  0  0  0  0
   -3.0500   11.0530   -4.2410 C   0  0  0  0  0  0  0  0  0  0  0  0
   -4.6880   15.7570   -1.0590 C   0  0  0  0  0  0  0  0  0  0  0  0
   -3.5610   14.6360    0.8320 C   0  0  0  0  0  0  0  0  0  0  0  0
   -2.3890   11.1430   -5.4630 C   0  0  0  0  0  0  0  0  0  0  0  0
   -4.9010   14.8330    0.1470 C   0  0  1  0  0  0  0  0  0  0  0  0
   -6.1840   14.5620    1.0140 C   0  0  1  0  0  0  0  0  0  0  0  0
   -5.3840   13.6500   -0.6790 C   0  0  0  0  0  0  0  0  0  0  0  0
   -6.4620   15.1130    2.3190 N   0  0  0  0  0  0  0  0  0  0  0  0
   -7.2980   14.7520    0.1210 N   0  0  0  0  0  0  0  0  0  0  0  0
   -6.7560   14.0120   -1.0280 O   0  0  0  0  0  0  0  0  0  0  0  0
  1  2  1  0
  2  3  2  0
  4  2  1  6
  4  5  1  0
  4  6  1  0
  5  7  2  0
  5  8  1  0
  6  9  1  6
  6 10  1  0
  7 11  1  0
  8 12  2  0
  9 13  2  0
 10 14  2  0
 11 15  2  0
 12 15  1  0
 16 13  1  6
 14 16  1  0
 16 17  1  0
 16 18  1  0
 17 19  1  1
 17 20  1  0
 18 21  1  0
 20 21  1  0
M  END
