mac-x0398-mac-x0344
     RDKit          3D

 25 26  0  0  0  0  0  0  0  0999 V2000
   -6.3480   14.8260    2.0850 N   0  0  0  0  0  0  0  0  0  0  0  0
   -5.5830   14.9170    0.9190 C   0  0  0  0  0  0  0  0  0  0  0  0
   -4.1880   14.8930    0.9670 C   0  0  0  0  0  0  0  0  0  0  0  0
   -6.2160   15.0330   -0.3170 C   0  0  0  0  0  0  0  0  0  0  0  0
   -5.4670   15.1200   -1.4850 C   0  0  0  0  0  0  0  0  0  0  0  0
   -3.4280   14.9790   -0.2050 C   0  0  0  0  0  0  0  0  0  0  0  0
   -6.1850   15.2290   -2.6460 O   0  0  0  0  0  0  0  0  0  0  0  0
   -4.0720   15.0910   -1.4470 C   0  0  0  0  0  0  0  0  0  0  0  0
   -3.3190   15.1760   -2.7240 C   0  0  0  0  0  0  0  0  0  0  0  0
   -3.8790   15.3440   -3.7960 O   0  0  0  0  0  0  0  0  0  0  0  0
   -1.9830   15.0450   -2.5440 O   0  0  0  0  0  0  0  0  0  0  0  0
   -1.3920   13.8890   -3.1630 C   0  0  0  0  0  0  0  0  0  0  0  0
    0.0020   14.2510   -3.6720 C   0  0  0  0  0  0  0  0  0  0  0  0
    0.9910   13.0760   -3.6940 C   0  0  0  0  0  0  0  0  0  0  0  0
    1.9920   13.3970   -4.6490 O   0  0  0  0  0  0  0  0  0  0  0  0
    1.6410   12.9820   -2.4430 O   0  0  0  0  0  0  0  0  0  0  0  0
    0.3300   11.7140   -4.0900 C   0  0  0  0  0  0  0  0  0  0  0  0
    0.0690   10.8890   -3.2120 O   0  0  0  0  0  0  0  0  0  0  0  0
    0.1020   11.5890   -5.4500 N   0  0  0  0  0  0  0  0  0  0  0  0
   -0.7080   10.6410   -6.0920 C   0  0  0  0  0  0  0  0  0  0  0  0
   -0.3750   10.0290   -7.3000 C   0  0  0  0  0  0  0  0  0  0  0  0
   -1.9170   10.3010   -5.4700 C   0  0  0  0  0  0  0  0  0  0  0  0
   -1.2350    9.0910   -7.8780 C   0  0  0  0  0  0  0  0  0  0  0  0
   -2.7780    9.3650   -6.0480 C   0  0  0  0  0  0  0  0  0  0  0  0
   -2.4370    8.7580   -7.2530 C   0  0  0  0  0  0  0  0  0  0  0  0
  1  2  1  0
  2  3  2  0
  2  4  1  0
  4  5  2  0
  3  6  1  0
  5  7  1  0
  5  8  1  0
  6  8  2  0
  8  9  1  0
  9 10  2  0
  9 11  1  0
 11 12  1  0
 12 13  1  0
 13 14  1  0
 14 15  1  0
 14 16  1  0
 14 17  1  0
 17 18  2  0
 17 19  1  0
 19 20  1  0
 20 21  2  0
 20 22  1  0
 21 23  1  0
 22 24  2  0
 23 25  2  0
 24 25  1  0
M  END
