mac-x0555-mac-x0115
     RDKit          3D

 26 29  0  0  0  0  0  0  0  0999 V2000
   -6.7920   14.8120    2.8160 N   0  0  0  0  0  0  0  0  0  0  0  0
   -6.4250   14.0080    1.6490 C   0  0  1  0  0  0  0  0  0  0  0  0
   -7.5140   14.2550    0.5990 C   0  0  0  0  0  0  0  0  0  0  0  0
   -4.9450   14.2490    1.1500 C   0  0  0  0  0  0  0  0  0  0  0  0
   -4.7430   15.3060    0.0160 C   0  0  2  0  0  0  0  0  0  0  0  0
   -6.9440   14.1670   -0.7110 N   0  0  0  0  0  0  0  0  0  0  0  0
   -6.0240   15.2630   -0.9380 C   0  0  2  0  0  0  0  0  0  0  0  0
   -3.4030   15.4040   -0.8580 C   0  0  2  0  0  0  0  0  0  0  0  0
   -5.8610   15.3070   -2.4100 C   0  0  0  0  0  0  0  0  0  0  0  0
   -3.5140   14.8430   -2.2960 C   0  0  1  0  0  0  0  0  0  0  0  0
   -1.8220   15.3550   -0.6390 C   0  0  1  0  0  0  0  0  0  0  0  0
   -4.7370   15.1120   -3.0280 C   0  0  0  0  0  0  0  0  0  0  0  0
   -0.9070   14.7740    0.4290 C   0  0  0  0  0  0  0  0  0  0  0  0
   -1.3340   14.8040   -2.0070 C   0  0  1  0  0  0  0  0  0  0  0  0
   -2.3030   15.4390   -2.9440 C   0  0  0  0  0  0  0  0  0  0  0  0
   -1.2040   14.6300    1.6180 O   0  0  0  0  0  0  0  0  0  0  0  0
    0.0580   14.9300   -2.3350 N   0  0  0  0  0  0  0  0  0  0  0  0
    0.3810   14.4210   -0.0570 N   0  0  0  0  0  0  0  0  0  0  0  0
    0.3950   14.6280   -3.7490 C   0  0  0  0  0  0  0  0  0  0  0  0
    0.9180   14.5010   -1.3470 C   0  0  0  0  0  0  0  0  0  0  0  0
    0.7100   15.8550   -4.6120 C   0  0  0  0  0  0  0  0  0  0  0  0
    2.5120   14.0800   -1.6270 S   0  0  0  0  0  0  0  0  0  0  0  0
   -0.5200   16.3670   -5.1340 O   0  0  0  0  0  0  0  0  0  0  0  0
   -0.4040   17.6370   -5.7850 C   0  0  0  0  0  0  0  0  0  0  0  0
   -1.4320   18.5460   -5.1500 C   0  0  0  0  0  0  0  0  0  0  0  0
    0.9980   18.2060   -5.6390 C   0  0  0  0  0  0  0  0  0  0  0  0
  2  1  1  1
  2  3  1  0
  2  4  1  0
  5  4  1  6
  3  6  1  0
  5  7  1  0
  6  7  1  0
  5  8  1  0
  7  9  1  6
  8 10  1  6
  8 11  1  0
  9 12  2  0
 10 12  1  6
 11 13  1  1
 11 14  1  0
 10 15  1  0
 14 15  1  6
 13 16  2  0
 14 17  1  0
 13 18  1  0
 17 19  1  0
 17 20  1  0
 18 20  1  0
 19 21  1  0
 20 22  2  0
 21 23  1  0
 23 24  1  0
 24 25  1  0
 24 26  1  0
M  END
