mac-x0584-diamond-x0962_3_A
     RDKit          3D

 28 32  0  0  0  0  0  0  0  0999 V2000
    1.2280   11.1960   -8.9150 N   0  0  0  0  0  0  0  0  0  0  0  0
    0.3330   11.3180   -7.7910 C   0  0  2  0  0  0  0  0  0  0  0  0
    1.0180   11.7870   -6.4900 C   0  0  0  0  0  0  0  0  0  0  0  0
   -0.3040   10.0070   -7.6170 C   0  0  0  0  0  0  0  0  0  0  0  0
    0.5460   13.1230   -5.9060 C   0  0  0  0  0  0  0  0  0  0  0  0
    0.1030    8.8440   -8.2290 N   0  0  0  0  0  0  0  0  0  0  0  0
   -1.3860    9.6520   -6.8590 C   0  0  0  0  0  0  0  0  0  0  0  0
   -0.9680   13.1330   -5.7570 C   0  0  0  0  0  0  0  0  0  0  0  0
   -0.7410    7.8570   -7.8170 C   0  0  0  0  0  0  0  0  0  0  0  0
   -1.6530    8.3190   -6.9890 N   0  0  0  0  0  0  0  0  0  0  0  0
   -1.4620   14.0350   -4.6170 C   0  0  1  0  0  0  0  0  0  0  0  0
   -0.3810   14.4060   -3.5870 C   0  0  2  0  0  0  0  0  0  0  0  0
   -1.9510   15.4100   -4.9930 C   0  0  0  0  0  0  0  0  0  0  0  0
    0.1270   13.1940   -2.8120 C   0  0  0  0  0  0  0  0  0  0  0  0
   -1.1500   15.3460   -2.7320 N   0  0  0  0  0  0  0  0  0  0  0  0
   -2.1480   16.0130   -3.6100 C   0  0  0  0  0  0  0  0  0  0  0  0
    1.3170   12.3590   -3.3630 C   0  0  0  0  0  0  0  0  0  0  0  0
   -0.7450   11.9090   -2.7610 C   0  0  0  0  0  0  0  0  0  0  0  0
   -1.3380   15.2220   -1.3350 C   0  0  0  0  0  0  0  0  0  0  0  0
    0.3990   11.1100   -3.3750 C   0  0  0  0  0  0  0  0  0  0  0  0
   -0.2620   14.9780   -0.4930 N   0  0  0  0  0  0  0  0  0  0  0  0
   -2.5150   15.3180   -0.6780 C   0  0  0  0  0  0  0  0  0  0  0  0
   -0.3800   14.8610    0.8630 C   0  0  0  0  0  0  0  0  0  0  0  0
   -2.5560   15.1670    0.8090 C   0  0  0  0  0  0  0  0  0  0  0  0
   -3.8950   15.5440   -0.9850 C   0  0  0  0  0  0  0  0  0  0  0  0
   -1.4530   14.9280    1.5580 N   0  0  0  0  0  0  0  0  0  0  0  0
   -3.7490   15.2980    1.2960 N   0  0  0  0  0  0  0  0  0  0  0  0
   -4.5420   15.5180    0.1850 C   0  0  0  0  0  0  0  0  0  0  0  0
  2  1  1  6
  2  3  1  0
  2  4  1  0
  3  5  1  0
  4  6  1  0
  4  7  2  0
  5  8  1  0
  6  9  1  0
  7 10  1  0
  9 10  2  0
 11  8  1  6
 11 12  1  0
 11 13  1  0
 12 14  1  1
 12 15  1  0
 13 16  1  0
 15 16  1  0
 14 17  1  0
 14 18  1  0
 15 19  1  0
 17 20  1  0
 18 20  1  0
 19 21  1  0
 19 22  2  0
 21 23  1  0
 22 24  1  0
 22 25  1  0
 23 26  2  0
 24 26  1  0
 24 27  2  0
 25 28  2  0
 27 28  1  0
M  END
