mac-x0159-mac-x0321
     RDKit          3D

 19 21  0  0  0  0  0  0  0  0999 V2000
   -4.6000   14.9430    1.0540 N   0  0  0  0  0  0  0  0  0  0  0  0
   -3.5920   15.5620    0.2200 C   0  0  1  0  0  0  0  0  0  0  0  0
   -2.2470   14.8370    0.2850 C   0  0  1  0  0  0  0  0  0  0  0  0
   -4.2240   15.5800   -1.0790 N   0  0  0  0  0  0  0  0  0  0  0  0
   -3.2820   15.1990   -2.1280 C   0  0  0  0  0  0  0  0  0  0  0  0
   -1.3060   15.4720   -0.7050 C   0  0  2  0  0  0  0  0  0  0  0  0
   -1.4330   14.8940    1.5030 N   0  0  0  0  0  0  0  0  0  0  0  0
   -1.8800   15.5930   -2.0390 N   0  0  0  0  0  0  0  0  0  0  0  0
   -0.1320   14.6280   -0.4480 N   0  0  0  0  0  0  0  0  0  0  0  0
   -0.1040   14.5710    1.0090 C   0  0  0  0  0  0  0  0  0  0  0  0
   -0.9940   15.2060   -3.0200 C   0  0  0  0  0  0  0  0  0  0  0  0
   -0.6790   13.9220   -2.9580 C   0  0  0  0  0  0  0  0  0  0  0  0
   -0.4880   16.1860   -3.9680 C   0  0  0  0  0  0  0  0  0  0  0  0
    0.1780   13.2730   -3.7590 O   0  0  0  0  0  0  0  0  0  0  0  0
    0.8310   16.5300   -4.1790 C   0  0  0  0  0  0  0  0  0  0  0  0
   -1.4070   16.8710   -4.7580 N   0  0  0  0  0  0  0  0  0  0  0  0
   -0.7740   17.7230   -5.5320 C   0  0  0  0  0  0  0  0  0  0  0  0
    0.9260   17.7500   -5.3810 S   0  0  0  0  0  0  0  0  0  0  0  0
   -1.4350   18.6340   -6.5020 C   0  0  0  0  0  0  0  0  0  0  0  0
  2  1  1  1
  2  3  1  0
  2  4  1  0
  4  5  1  0
  3  6  1  0
  3  7  1  1
  5  8  1  0
  6  8  1  0
  6  9  1  6
  7 10  1  0
  9 10  1  0
  8 11  1  0
 11 12  2  3
 11 13  1  0
 12 14  1  0
 13 15  2  0
 13 16  1  0
 16 17  2  0
 15 18  1  0
 17 18  1  0
 17 19  1  0
M  END
