mac-x0373-mac-x0284
     RDKit          3D

 17 18  0  0  0  0  0  0  0  0999 V2000
    1.0860   13.3730   -1.6010 O   0  0  0  0  0  0  0  0  0  0  0  0
    0.1870   14.2750   -2.1980 C   0  0  0  0  0  0  0  0  0  0  0  0
    0.3030   15.4510   -1.4630 O   0  0  0  0  0  0  0  0  0  0  0  0
   -1.2310   13.6280   -2.1580 C   0  0  0  0  0  0  0  0  0  0  0  0
    0.6830   14.5090   -3.4900 O   0  0  0  0  0  0  0  0  0  0  0  0
   -1.6490   12.7680   -3.3410 C   0  0  0  0  0  0  0  0  0  0  0  0
   -2.3730   14.4250   -1.4990 C   0  0  0  0  0  0  0  0  0  0  0  0
   -1.0480   12.7980   -4.6090 C   0  0  0  0  0  0  0  0  0  0  0  0
   -2.7100   11.8770   -3.1190 C   0  0  0  0  0  0  0  0  0  0  0  0
   -3.4560   14.9950   -2.1960 C   0  0  0  0  0  0  0  0  0  0  0  0
   -2.3190   14.5630   -0.1050 C   0  0  0  0  0  0  0  0  0  0  0  0
   -1.5010   11.9490   -5.6240 C   0  0  0  0  0  0  0  0  0  0  0  0
   -3.1580   11.0330   -4.1280 C   0  0  0  0  0  0  0  0  0  0  0  0
   -4.4520   15.6740   -1.4910 C   0  0  0  0  0  0  0  0  0  0  0  0
   -3.3140   15.2420    0.5870 C   0  0  0  0  0  0  0  0  0  0  0  0
   -2.5520   11.0700   -5.3800 C   0  0  0  0  0  0  0  0  0  0  0  0
   -4.3740   15.7920   -0.1120 C   0  0  0  0  0  0  0  0  0  0  0  0
  2  1  1  0
  2  3  1  0
  2  4  1  0
  2  5  1  0
  4  6  1  0
  4  7  1  0
  6  8  2  0
  6  9  1  0
  7 10  2  0
  7 11  1  0
  8 12  1  0
  9 13  2  0
 10 14  1  0
 11 15  2  0
 12 16  2  0
 13 16  1  0
 14 17  2  0
 15 17  1  0
M  END
