mac-x0373-mac-x0417
     RDKit          3D

 28 31  0  0  0  0  0  0  0  0999 V2000
    0.9330   13.0410   -2.2470 O   0  0  0  0  0  0  0  0  0  0  0  0
    0.0890   14.1200   -2.2080 C   0  0  0  0  0  0  0  0  0  0  0  0
    0.4290   15.2950   -2.1790 O   0  0  0  0  0  0  0  0  0  0  0  0
    0.7350   12.0570   -3.1920 C   0  0  0  0  0  0  0  0  0  0  0  0
   -1.3560   13.6290   -2.1810 C   0  0  0  0  0  0  0  0  0  0  0  0
    0.5140   10.8680   -2.9680 O   0  0  0  0  0  0  0  0  0  0  0  0
    0.8400   12.6230   -4.5970 C   0  0  0  0  0  0  0  0  0  0  0  0
   -1.8970   12.9400   -3.4150 C   0  0  0  0  0  0  0  0  0  0  0  0
   -2.4170   14.4270   -1.4350 C   0  0  0  0  0  0  0  0  0  0  0  0
    0.5360   11.6820   -5.7260 C   0  0  0  0  0  0  0  0  0  0  0  0
   -1.5170   13.2070   -4.7360 C   0  0  0  0  0  0  0  0  0  0  0  0
   -2.8610   11.9520   -3.1690 C   0  0  0  0  0  0  0  0  0  0  0  0
   -3.5100   15.0410   -2.0750 C   0  0  0  0  0  0  0  0  0  0  0  0
   -2.3000   14.5300   -0.0410 C   0  0  0  0  0  0  0  0  0  0  0  0
    1.3050   11.7750   -6.8120 N   0  0  0  0  0  0  0  0  0  0  0  0
   -0.4560   10.6600   -5.8950 C   0  0  0  0  0  0  0  0  0  0  0  0
   -2.0910   12.4900   -5.7850 C   0  0  0  0  0  0  0  0  0  0  0  0
   -3.4340   11.2400   -4.2130 C   0  0  0  0  0  0  0  0  0  0  0  0
   -4.4580   15.7230   -1.3240 C   0  0  0  0  0  0  0  0  0  0  0  0
   -3.2510   15.2160    0.6970 C   0  0  0  0  0  0  0  0  0  0  0  0
    0.8370   10.8260   -7.7090 O   0  0  0  0  0  0  0  0  0  0  0  0
   -0.2120   10.1660   -7.1700 C   0  0  0  0  0  0  0  0  0  0  0  0
   -1.5080   10.0930   -5.1630 C   0  0  0  0  0  0  0  0  0  0  0  0
   -3.0480   11.5080   -5.5200 C   0  0  0  0  0  0  0  0  0  0  0  0
   -4.3220   15.8040    0.0540 C   0  0  0  0  0  0  0  0  0  0  0  0
   -0.9430    9.1490   -7.7820 C   0  0  0  0  0  0  0  0  0  0  0  0
   -2.2680    9.0680   -5.7490 C   0  0  0  0  0  0  0  0  0  0  0  0
   -1.9920    8.6050   -7.0380 C   0  0  0  0  0  0  0  0  0  0  0  0
  1  2  1  0
  2  3  2  0
  1  4  1  0
  2  5  1  0
  4  6  2  0
  4  7  1  0
  5  8  1  0
  5  9  1  0
  7 10  1  0
  8 11  2  0
  8 12  1  0
  9 13  2  0
  9 14  1  0
 10 15  2  0
 10 16  1  0
 11 17  1  0
 12 18  2  0
 13 19  1  0
 14 20  2  0
 15 21  1  0
 16 22  2  0
 21 22  1  0
 16 23  1  0
 17 24  2  0
 18 24  1  0
 19 25  2  0
 20 25  1  0
 22 26  1  0
 23 27  2  0
 26 28  2  0
 27 28  1  0
M  END
