mac-x0223-mac-x0341
     RDKit          3D

 27 29  0  0  0  0  0  0  0  0999 V2000
    1.1980   18.3760   -5.7660 C   0  0  0  0  0  0  0  0  0  0  0  0
    0.4170   18.1500   -4.6120 O   0  0  0  0  0  0  0  0  0  0  0  0
   -0.2700   16.9850   -4.6500 C   0  0  0  0  0  0  0  0  0  0  0  0
   -1.6390   16.8950   -4.7980 C   0  0  0  0  0  0  0  0  0  0  0  0
    0.5000   15.8250   -4.5240 C   0  0  0  0  0  0  0  0  0  0  0  0
   -2.3480   18.0540   -4.9040 O   0  0  0  0  0  0  0  0  0  0  0  0
   -2.2750   15.6550   -4.8280 C   0  0  0  0  0  0  0  0  0  0  0  0
   -0.1110   14.5570   -4.5440 C   0  0  0  0  0  0  0  0  0  0  0  0
    0.7230   13.3020   -4.3970 C   0  0  0  0  0  0  0  0  0  0  0  0
   -1.5090   14.4870   -4.7010 C   0  0  0  0  0  0  0  0  0  0  0  0
    0.5570   12.5670   -3.0730 C   0  0  0  0  0  0  0  0  0  0  0  0
    0.0500   11.4540   -2.9790 O   0  0  0  0  0  0  0  0  0  0  0  0
    1.0300   13.2760   -2.0110 O   0  0  0  0  0  0  0  0  0  0  0  0
    0.1610   13.3730   -0.8710 C   0  0  0  0  0  0  0  0  0  0  0  0
   -0.3710   14.7790   -0.7240 C   0  0  0  0  0  0  0  0  0  0  0  0
   -1.8750   14.8300   -0.7980 C   0  0  0  0  0  0  0  0  0  0  0  0
   -2.6760   14.7880    0.3570 C   0  0  0  0  0  0  0  0  0  0  0  0
   -2.4870   14.9290   -2.0530 C   0  0  0  0  0  0  0  0  0  0  0  0
   -4.0690   14.8420    0.2520 C   0  0  0  0  0  0  0  0  0  0  0  0
   -3.8680   14.9870   -2.1700 C   0  0  0  0  0  0  0  0  0  0  0  0
   -4.6410   14.9410   -1.0150 C   0  0  0  0  0  0  0  0  0  0  0  0
   -4.8450   14.7910    1.4150 N   0  0  0  0  0  0  0  0  0  0  0  0
   -6.1330   14.7340    1.3060 C   0  0  0  0  0  0  0  0  0  0  0  0
   -6.1070   14.9860   -1.0870 C   0  0  0  0  0  0  0  0  0  0  0  0
   -6.9080   14.6690    2.4210 N   0  0  0  0  0  0  0  0  0  0  0  0
   -6.6940   15.2140   -2.1330 O   0  0  0  0  0  0  0  0  0  0  0  0
   -6.7660   14.7390    0.0950 N   0  0  0  0  0  0  0  0  0  0  0  0
  1  2  1  0
  2  3  1  0
  3  4  2  0
  3  5  1  0
  4  6  1  0
  4  7  1  0
  5  8  2  0
  8  9  1  0
  7 10  2  0
  8 10  1  0
  9 11  1  0
 11 12  2  0
 11 13  1  0
 13 14  1  0
 14 15  1  0
 15 16  1  0
 16 17  2  0
 16 18  1  0
 17 19  1  0
 18 20  2  0
 19 21  2  0
 20 21  1  0
 19 22  1  0
 22 23  2  0
 21 24  1  0
 23 25  1  0
 24 26  2  0
 23 27  1  0
 24 27  1  0
M  END
