mac-x0137-mac-x0321
     RDKit          3D

 18 21  0  0  0  0  0  0  0  0999 V2000
   -2.3270   14.2710   -3.8740 N   0  0  0  0  0  0  0  0  0  0  0  0
   -3.0900   14.7650   -2.9900 C   0  0  0  0  0  0  0  0  0  0  0  0
   -4.1720   15.2880   -3.4740 O   0  0  0  0  0  0  0  0  0  0  0  0
   -1.0410   13.6710   -3.6270 C   0  0  1  0  0  0  0  0  0  0  0  0
   -0.2150   13.9470   -2.4530 N   0  0  0  0  0  0  0  0  0  0  0  0
   -1.1010   12.1400   -3.6260 C   0  0  0  0  0  0  0  0  0  0  0  0
   -3.0520   14.8960   -1.5790 C   0  0  0  0  0  0  0  0  0  0  0  0
    0.9170   13.0660   -2.6020 C   0  0  0  0  0  0  0  0  0  0  0  0
    0.2550   11.7440   -3.0390 C   0  0  0  0  0  0  0  0  0  0  0  0
   -1.9340   14.6330   -0.8030 C   0  0  0  0  0  0  0  0  0  0  0  0
   -0.6540   14.2110   -1.1430 C   0  0  0  0  0  0  0  0  0  0  0  0
   -4.0670   15.2940   -0.7200 C   0  0  0  0  0  0  0  0  0  0  0  0
    0.1910   14.0620   -0.1100 N   0  0  0  0  0  0  0  0  0  0  0  0
   -2.2520   14.8650    0.5260 C   0  0  0  0  0  0  0  0  0  0  0  0
   -3.5480   15.2610    0.5300 N   0  0  0  0  0  0  0  0  0  0  0  0
   -4.4390   15.6710    1.9110 Cl  0  0  0  0  0  0  0  0  0  0  0  0
   -0.2390   14.3180    1.1550 C   0  0  0  0  0  0  0  0  0  0  0  0
   -1.4380   14.7240    1.5720 N   0  0  0  0  0  0  0  0  0  0  0  0
  1  2  2  0
  2  3  1  0
  1  4  1  0
  4  5  1  0
  4  6  1  1
  2  7  1  0
  5  8  1  0
  6  9  1  0
  8  9  1  0
  7 10  1  0
  5 11  1  0
 10 11  2  0
  7 12  2  0
 11 13  1  0
 10 14  1  0
 12 15  1  0
 14 15  1  0
 15 16  1  0
 13 17  2  0
 14 18  2  0
 17 18  1  0
M  END
