mac-x0404-mac-x0348
     RDKit          3D

 15 16  0  0  0  0  0  0  0  0999 V2000
    1.1330   12.8200   -1.9220 O   0  0  0  0  0  0  0  0  0  0  0  0
    0.8810   12.0580   -3.0160 C   0  0  0  0  0  0  0  0  0  0  0  0
    0.3310   10.9700   -2.9300 O   0  0  0  0  0  0  0  0  0  0  0  0
    1.3520   12.6940   -4.3200 C   0  0  0  0  0  0  0  0  0  0  0  0
    1.1670   14.1130   -4.2710 O   0  0  0  0  0  0  0  0  0  0  0  0
   -0.0930   14.5550   -4.6210 C   0  0  0  0  0  0  0  0  0  0  0  0
   -0.2270   15.9140   -4.9470 C   0  0  0  0  0  0  0  0  0  0  0  0
   -1.1950   13.6980   -4.6560 C   0  0  0  0  0  0  0  0  0  0  0  0
   -1.4970   16.4190   -5.3110 C   0  0  0  0  0  0  0  0  0  0  0  0
   -2.4470   14.2020   -5.0150 C   0  0  0  0  0  0  0  0  0  0  0  0
    0.8600   16.7870   -4.9240 C   0  0  0  0  0  0  0  0  0  0  0  0
   -2.5940   15.5500   -5.3380 C   0  0  0  0  0  0  0  0  0  0  0  0
   -1.6280   17.7710   -5.6410 C   0  0  0  0  0  0  0  0  0  0  0  0
    0.7250   18.1280   -5.2520 C   0  0  0  0  0  0  0  0  0  0  0  0
   -0.5280   18.6180   -5.6140 C   0  0  0  0  0  0  0  0  0  0  0  0
  1  2  1  0
  2  3  2  0
  2  4  1  0
  4  5  1  0
  5  6  1  0
  6  7  2  0
  6  8  1  0
  7  9  1  0
  8 10  2  0
  7 11  1  0
  9 12  2  0
 10 12  1  0
  9 13  1  0
 11 14  2  0
 13 15  2  0
 14 15  1  0
M  END
