mac-x0333-diamond-x0933_0_A
     RDKit          3D

 11 12  0  0  0  0  0  0  0  0999 V2000
   -2.5340   15.1290   -2.7180 O   0  0  0  0  0  0  0  0  0  0  0  0
   -3.5350   15.0860   -1.7890 C   0  0  0  0  0  0  0  0  0  0  0  0
   -3.1780   15.1890   -0.4330 C   0  0  0  0  0  0  0  0  0  0  0  0
   -4.8650   14.9480   -2.1740 C   0  0  0  0  0  0  0  0  0  0  0  0
   -5.8050   14.9110   -1.1640 C   0  0  0  0  0  0  0  0  0  0  0  0
   -4.1580   15.1600    0.5580 C   0  0  0  0  0  0  0  0  0  0  0  0
   -3.8670   15.2770    1.9020 N   0  0  0  0  0  0  0  0  0  0  0  0
   -5.4570   15.0130    0.1540 C   0  0  0  0  0  0  0  0  0  0  0  0
   -7.1470   14.7760   -1.3230 O   0  0  0  0  0  0  0  0  0  0  0  0
   -6.5310   14.9500    0.9890 O   0  0  0  0  0  0  0  0  0  0  0  0
   -7.5730   14.6600    0.0480 C   0  0  0  0  0  0  0  0  0  0  0  0
  1  2  1  0
  2  3  2  0
  2  4  1  0
  4  5  2  0
  3  6  1  0
  6  7  1  0
  5  8  1  0
  6  8  2  0
  5  9  1  0
  8 10  1  0
  9 11  1  0
 10 11  1  0
M  END
