mac-x0415-mac-x0263
     RDKit          3D

 30 33  0  0  0  0  0  0  0  0999 V2000
    0.1210   11.0410   -3.1400 O   0  0  0  0  0  0  0  0  0  0  0  0
    0.7770   12.2140   -3.1900 C   0  0  0  0  0  0  0  0  0  0  0  0
    1.1830   12.7230   -2.1580 O   0  0  0  0  0  0  0  0  0  0  0  0
    0.9130   12.7560   -4.6020 C   0  0  0  0  0  0  0  0  0  0  0  0
    0.7180   14.2160   -4.5540 C   0  0  0  0  0  0  0  0  0  0  0  0
    1.7800   15.1940   -4.3710 C   0  0  0  0  0  0  0  0  0  0  0  0
   -0.3250   15.0300   -4.6570 C   0  0  0  0  0  0  0  0  0  0  0  0
    1.4710   16.4510   -4.3520 N   0  0  0  0  0  0  0  0  0  0  0  0
    0.0450   16.4440   -4.4550 C   0  0  1  0  0  0  0  0  0  0  0  0
   -1.7040   14.7810   -4.8820 C   0  0  0  0  0  0  0  0  0  0  0  0
   -0.6640   17.4170   -5.3350 C   0  0  0  0  0  0  0  0  0  0  0  0
   -2.4510   15.7720   -5.4130 C   0  0  0  0  0  0  0  0  0  0  0  0
   -3.7790   15.5220   -5.5930 O   0  0  0  0  0  0  0  0  0  0  0  0
   -1.8900   17.0750   -5.7810 C   0  0  0  0  0  0  0  0  0  0  0  0
   -4.2420   14.8540   -4.4200 C   0  0  0  0  0  0  0  0  0  0  0  0
   -3.5010   15.3520   -3.1600 C   0  0  0  0  0  0  0  0  0  0  0  0
   -4.2230   15.1990   -1.8540 C   0  0  0  0  0  0  0  0  0  0  0  0
   -5.6050   15.0520   -1.8580 C   0  0  0  0  0  0  0  0  0  0  0  0
   -3.5030   15.1900   -0.6440 C   0  0  0  0  0  0  0  0  0  0  0  0
   -6.2200   14.8760   -0.6360 C   0  0  0  0  0  0  0  0  0  0  0  0
   -4.1520   15.0210    0.5850 C   0  0  0  0  0  0  0  0  0  0  0  0
   -7.5280   14.6880   -0.3100 N   0  0  0  0  0  0  0  0  0  0  0  0
   -5.5410   14.8530    0.5710 C   0  0  0  0  0  0  0  0  0  0  0  0
   -7.6060   14.5510    1.0480 C   0  0  0  0  0  0  0  0  0  0  0  0
   -6.4190   14.6520    1.6020 N   0  0  0  0  0  0  0  0  0  0  0  0
   -8.8910   14.3160    1.7490 C   0  0  0  0  0  0  0  0  0  0  0  0
   -9.7370   15.5710    1.8640 C   0  0  0  0  0  0  0  0  0  0  0  0
  -10.7830   15.3950    2.9210 C   0  0  0  0  0  0  0  0  0  0  0  0
  -11.5930   14.3490    2.6730 O   0  0  0  0  0  0  0  0  0  0  0  0
  -10.9500   16.0800    3.9110 O   0  0  0  0  0  0  0  0  0  0  0  0
  1  2  1  0
  2  3  2  0
  2  4  1  0
  4  5  1  0
  5  6  1  0
  5  7  2  0
  6  8  2  0
  7  9  1  0
  8  9  1  0
  7 10  1  0
  9 11  1  6
 10 12  2  0
 12 13  1  0
 11 14  2  0
 12 14  1  0
 13 15  1  0
 15 16  1  0
 16 17  1  0
 17 18  2  0
 17 19  1  0
 18 20  1  0
 19 21  2  0
 20 22  1  0
 20 23  2  0
 21 23  1  0
 22 24  1  0
 23 25  1  0
 24 25  2  0
 24 26  1  0
 26 27  1  0
 27 28  1  0
 28 29  1  0
 28 30  2  0
M  END
