mac-x0326-diamond-x0926_0_A
     RDKit          3D

 15 16  0  0  0  0  0  0  0  0999 V2000
   -6.2560   15.3940   -1.4920 Cl  0  0  0  0  0  0  0  0  0  0  0  0
   -4.5520   15.1780   -1.4200 C   0  0  0  0  0  0  0  0  0  0  0  0
   -3.8140   15.1220   -2.6020 C   0  0  0  0  0  0  0  0  0  0  0  0
   -3.9380   15.0580   -0.1780 C   0  0  0  0  0  0  0  0  0  0  0  0
   -2.4240   14.9420   -2.5330 C   0  0  0  0  0  0  0  0  0  0  0  0
   -2.5580   14.8760   -0.0840 C   0  0  0  0  0  0  0  0  0  0  0  0
   -1.5640   14.8690   -3.6160 N   0  0  0  0  0  0  0  0  0  0  0  0
   -1.8160   14.8230   -1.2790 C   0  0  0  0  0  0  0  0  0  0  0  0
   -0.3240   14.7020   -3.2020 C   0  0  0  0  0  0  0  0  0  0  0  0
   -0.1140   14.6190   -1.4970 S   0  0  0  0  0  0  0  0  0  0  0  0
    0.8510   14.5880   -4.1340 C   0  0  0  0  0  0  0  0  0  0  0  0
    1.0790   13.1410   -4.5530 C   0  0  0  0  0  0  0  0  0  0  0  0
    1.0890   12.2530   -3.3450 C   0  0  0  0  0  0  0  0  0  0  0  0
    0.3560   11.1390   -3.5100 O   0  0  0  0  0  0  0  0  0  0  0  0
    1.6810   12.4720   -2.3070 O   0  0  0  0  0  0  0  0  0  0  0  0
  1  2  1  0
  2  3  2  0
  2  4  1  0
  3  5  1  0
  4  6  2  0
  5  7  1  0
  5  8  2  0
  6  8  1  0
  7  9  2  0
  8 10  1  0
  9 10  1  0
  9 11  1  0
 11 12  1  0
 12 13  1  0
 13 14  1  0
 13 15  2  0
M  END
