mac-x0123-mac-x0193
     RDKit          3D

 30 33  0  0  0  0  0  0  0  0999 V2000
   -3.4750   14.6060    1.8040 N   0  0  0  0  0  0  0  0  0  0  0  0
   -4.5190   14.6120    0.8920 C   0  0  0  0  0  0  0  0  0  0  0  0
   -5.8350   14.5550    1.1650 C   0  0  0  0  0  0  0  0  0  0  0  0
   -4.1420   14.6590   -0.4630 N   0  0  0  0  0  0  0  0  0  0  0  0
   -5.0650   14.6710   -1.5100 C   0  0  0  0  0  0  0  0  0  0  0  0
   -6.7620   14.5880   -0.0040 C   0  0  0  0  0  0  0  0  0  0  0  0
   -6.6270   14.4580    2.4170 C   0  0  0  0  0  0  0  0  0  0  0  0
   -2.8730   14.6830   -0.9420 N   0  0  0  0  0  0  0  0  0  0  0  0
   -6.4240   14.6440   -1.2630 N   0  0  0  0  0  0  0  0  0  0  0  0
   -8.1880   14.5600    0.4640 C   0  0  0  0  0  0  0  0  0  0  0  0
   -8.0780   14.2500    1.9620 C   0  0  0  0  0  0  0  0  0  0  0  0
   -4.3810   14.7010   -2.6520 N   0  0  0  0  0  0  0  0  0  0  0  0
   -3.0510   14.7010   -2.2590 C   0  0  0  0  0  0  0  0  0  0  0  0
   -1.8490   14.7090   -3.1810 C   0  0  0  0  0  0  0  0  0  0  0  0
   -0.4910   15.0330   -2.4930 C   0  0  0  0  0  0  0  0  0  0  0  0
    0.7190   14.1650   -2.8440 C   0  0  0  0  0  0  0  0  0  0  0  0
    0.5410   12.7780   -2.4230 N   0  0  0  0  0  0  0  0  0  0  0  0
    0.5460   11.8910   -3.3360 C   0  0  0  0  0  0  0  0  0  0  0  0
    0.3760   10.5730   -3.0790 O   0  0  0  0  0  0  0  0  0  0  0  0
    0.7450   12.2820   -4.7930 C   0  0  0  0  0  0  0  0  0  0  0  0
    0.0960   11.3210   -5.6740 N   0  0  0  0  0  0  0  0  0  0  0  0
    0.6460   11.1310   -6.9130 C   0  0  0  0  0  0  0  0  0  0  0  0
    1.7330   11.5500   -7.1880 O   0  0  0  0  0  0  0  0  0  0  0  0
   -0.1890   10.4210   -7.7510 N   0  0  0  0  0  0  0  0  0  0  0  0
    0.2430    9.6120   -8.9050 C   0  0  0  0  0  0  0  0  0  0  0  0
    1.3470    8.6080   -8.5720 C   0  0  0  0  0  0  0  0  0  0  0  0
    0.6000   10.4670  -10.1210 C   0  0  0  0  0  0  0  0  0  0  0  0
    2.0860    8.0890   -9.8150 C   0  0  0  0  0  0  0  0  0  0  0  0
    0.8360    9.6330  -11.3840 C   0  0  0  0  0  0  0  0  0  0  0  0
    1.2230    8.1890  -11.0690 C   0  0  0  0  0  0  0  0  0  0  0  0
  1  2  1  0
  2  3  2  0
  2  4  1  0
  4  5  1  0
  3  6  1  0
  3  7  1  0
  4  8  1  0
  5  9  1  0
  6  9  2  0
  6 10  1  0
  7 11  1  0
 10 11  1  0
  5 12  2  0
  8 13  2  0
 12 13  1  0
 13 14  1  0
 14 15  1  0
 15 16  1  0
 16 17  1  0
 17 18  2  3
 18 19  1  0
 18 20  1  0
 20 21  1  0
 21 22  1  0
 22 23  2  0
 22 24  1  0
 24 25  1  0
 25 26  1  0
 25 27  1  0
 26 28  1  0
 27 29  1  0
 28 30  1  0
 29 30  1  0
M  END
