mac-x0306-mac-x0379
     RDKit          3D

 15 16  0  0  0  0  0  0  0  0999 V2000
   -4.0410   15.3800    1.3910 C   0  0  0  0  0  0  0  0  0  0  0  0
   -4.2100   14.7220    0.0360 C   0  0  2  0  0  0  0  0  0  0  0  0
   -3.0990   15.1890   -0.8770 C   0  0  0  0  0  0  0  0  0  0  0  0
   -5.4980   15.2300   -0.5960 C   0  0  2  0  0  0  0  0  0  0  0  0
   -6.7060   14.8150    0.2170 C   0  0  0  0  0  0  0  0  0  0  0  0
   -5.4950   14.9440   -2.0850 C   0  0  0  0  0  0  0  0  0  0  0  0
   -3.1010   14.6510   -2.2240 N   0  0  0  0  0  0  0  0  0  0  0  0
   -1.8640   14.7510   -2.9390 C   0  0  0  0  0  0  0  0  0  0  0  0
   -6.6490   14.4660    1.5630 N   0  0  0  0  0  0  0  0  0  0  0  0
   -7.9480   14.7400   -0.2090 N   0  0  0  0  0  0  0  0  0  0  0  0
   -4.3720   14.6860   -2.8040 C   0  0  0  0  0  0  0  0  0  0  0  0
   -1.7390   14.6770   -4.1570 O   0  0  0  0  0  0  0  0  0  0  0  0
   -0.7530   14.9450   -2.1770 O   0  0  0  0  0  0  0  0  0  0  0  0
   -8.6990   14.3480    0.8650 C   0  0  0  0  0  0  0  0  0  0  0  0
   -7.9140   14.1740    1.9710 C   0  0  0  0  0  0  0  0  0  0  0  0
  2  1  1  1
  2  3  1  0
  2  4  1  0
  4  5  1  1
  4  6  1  0
  3  7  1  0
  7  8  1  0
  5  9  1  0
  5 10  2  0
  6 11  2  0
  7 11  1  0
  8 12  2  0
  8 13  1  0
 10 14  1  0
  9 15  1  0
 14 15  2  0
M  END
