mac-x0319-mac-x0394
     RDKit          3D

 12 12  0  0  0  0  0  0  0  0999 V2000
    0.4770   10.4640   -2.4750 O   0  0  0  0  0  0  0  0  0  0  0  0
    0.6940   11.8110   -2.4600 C   0  0  0  0  0  0  0  0  0  0  0  0
    0.5560   12.4180   -1.4060 O   0  0  0  0  0  0  0  0  0  0  0  0
    1.0870   12.3790   -3.8180 C   0  0  0  0  0  0  0  0  0  0  0  0
    0.4800   13.7410   -4.1110 C   0  0  0  0  0  0  0  0  0  0  0  0
    1.2400   14.9250   -3.9910 C   0  0  0  0  0  0  0  0  0  0  0  0
   -0.8680   13.8450   -4.5070 C   0  0  0  0  0  0  0  0  0  0  0  0
    0.6410   16.1620   -4.2620 C   0  0  0  0  0  0  0  0  0  0  0  0
   -1.4390   15.0990   -4.7740 C   0  0  0  0  0  0  0  0  0  0  0  0
    1.3080   17.3410   -4.1580 O   0  0  0  0  0  0  0  0  0  0  0  0
   -3.0880   15.2320   -5.2630 Cl  0  0  0  0  0  0  0  0  0  0  0  0
   -0.6820   16.2510   -4.6500 C   0  0  0  0  0  0  0  0  0  0  0  0
  1  2  1  0
  2  3  2  0
  2  4  1  0
  4  5  1  0
  5  6  2  0
  5  7  1  0
  6  8  1  0
  7  9  2  0
  8 10  1  0
  9 11  1  0
  8 12  2  0
  9 12  1  0
M  END
