mac-x0123-mac-x0404
     RDKit          3D

 29 33  0  0  0  0  0  0  0  0999 V2000
   -3.5190   14.6420    1.5030 N   0  0  0  0  0  0  0  0  0  0  0  0
   -4.6760   14.5690    0.7170 C   0  0  0  0  0  0  0  0  0  0  0  0
   -5.9350   14.5860    1.2170 C   0  0  0  0  0  0  0  0  0  0  0  0
   -4.5750   14.4100   -0.7120 N   0  0  0  0  0  0  0  0  0  0  0  0
   -5.7420   14.3540   -1.4920 C   0  0  0  0  0  0  0  0  0  0  0  0
   -7.0730   14.5450    0.2590 C   0  0  0  0  0  0  0  0  0  0  0  0
   -6.5050   14.6380    2.5820 C   0  0  0  0  0  0  0  0  0  0  0  0
   -3.4800   14.2460   -1.5560 N   0  0  0  0  0  0  0  0  0  0  0  0
   -6.9980   14.4580   -1.0070 N   0  0  0  0  0  0  0  0  0  0  0  0
   -8.3920   14.6420    0.9520 C   0  0  0  0  0  0  0  0  0  0  0  0
   -8.0210   14.7930    2.4240 C   0  0  0  0  0  0  0  0  0  0  0  0
   -5.4460   14.1610   -2.7250 N   0  0  0  0  0  0  0  0  0  0  0  0
   -4.1050   14.0700   -2.7600 C   0  0  0  0  0  0  0  0  0  0  0  0
   -3.5640   13.7480   -4.1320 C   0  0  0  0  0  0  0  0  0  0  0  0
   -2.3640   14.5510   -4.4520 C   0  0  0  0  0  0  0  0  0  0  0  0
   -2.4930   15.8680   -4.8570 C   0  0  0  0  0  0  0  0  0  0  0  0
   -1.1050   13.9550   -4.3430 C   0  0  0  0  0  0  0  0  0  0  0  0
    0.0380   14.6730   -4.6300 C   0  0  0  0  0  0  0  0  0  0  0  0
   -1.3700   16.6150   -5.1500 C   0  0  0  0  0  0  0  0  0  0  0  0
    1.3190   14.1720   -4.5480 O   0  0  0  0  0  0  0  0  0  0  0  0
   -0.0990   16.0140   -5.0330 C   0  0  0  0  0  0  0  0  0  0  0  0
   -1.4870   17.9430   -5.5550 C   0  0  0  0  0  0  0  0  0  0  0  0
    1.5170   12.7870   -4.3140 C   0  0  0  0  0  0  0  0  0  0  0  0
   -0.3570   18.6910   -5.8440 C   0  0  0  0  0  0  0  0  0  0  0  0
    1.0060   16.7860   -5.3280 C   0  0  0  0  0  0  0  0  0  0  0  0
    0.9790   12.1370   -3.0350 C   0  0  0  0  0  0  0  0  0  0  0  0
    0.8970   18.1110   -5.7280 C   0  0  0  0  0  0  0  0  0  0  0  0
    1.0240   12.9220   -1.9480 O   0  0  0  0  0  0  0  0  0  0  0  0
    0.5360   10.9990   -2.9590 O   0  0  0  0  0  0  0  0  0  0  0  0
  1  2  1  0
  2  3  2  0
  2  4  1  0
  4  5  1  0
  3  6  1  0
  3  7  1  0
  4  8  1  0
  5  9  1  0
  6  9  2  0
  6 10  1  0
  7 11  1  0
 10 11  1  0
  5 12  2  0
  8 13  2  0
 12 13  1  0
 13 14  1  0
 14 15  1  0
 15 16  2  0
 15 17  1  0
 17 18  2  0
 16 19  1  0
 18 20  1  0
 18 21  1  0
 19 21  2  0
 19 22  1  0
 20 23  1  0
 22 24  2  0
 21 25  1  0
 23 26  1  0
 24 27  1  0
 25 27  2  0
 26 28  1  0
 26 29  2  0
M  END
