mac-x0496-mac-x0451
     RDKit          3D

 22 24  0  0  0  0  0  0  0  0999 V2000
   -9.7600   17.7760    4.7110 C   0  0  0  0  0  0  0  0  0  0  0  0
   -9.8940   16.8590    3.5600 C   0  0  0  0  0  0  0  0  0  0  0  0
  -10.9020   16.9270    2.6780 N   0  0  0  0  0  0  0  0  0  0  0  0
   -8.9850   15.8630    3.3120 N   0  0  0  0  0  0  0  0  0  0  0  0
  -10.6190   15.8900    1.7820 O   0  0  0  0  0  0  0  0  0  0  0  0
   -9.4660   15.3050    2.2210 C   0  0  0  0  0  0  0  0  0  0  0  0
   -8.9400   14.1580    1.4230 C   0  0  0  0  0  0  0  0  0  0  0  0
   -7.4810   14.2030    1.3920 N   0  0  0  0  0  0  0  0  0  0  0  0
   -6.7740   14.5380    0.2370 C   0  0  0  0  0  0  0  0  0  0  0  0
   -7.3230   14.5580   -0.8610 O   0  0  0  0  0  0  0  0  0  0  0  0
   -5.2610   14.9040    0.4180 C   0  0  1  0  0  0  0  0  0  0  0  0
   -4.4130   13.8520    1.0920 C   0  0  2  0  0  0  0  0  0  0  0  0
   -4.5720   15.4960   -0.8310 C   0  0  0  0  0  0  0  0  0  0  0  0
   -5.1410   15.6450    1.6710 N   0  0  0  0  0  0  0  0  0  0  0  0
   -3.8760   12.9250    0.1440 C   0  0  0  0  0  0  0  0  0  0  0  0
   -3.1880   14.8710   -1.1370 C   0  0  2  0  0  0  0  0  0  0  0  0
   -5.3510   13.5130    2.1720 C   0  0  0  0  0  0  0  0  0  0  0  0
   -5.7710   14.7430    2.5160 C   0  0  0  0  0  0  0  0  0  0  0  0
   -2.7060   15.1000   -2.5740 C   0  0  0  0  0  0  0  0  0  0  0  0
   -3.2710   13.4040   -0.9180 C   0  0  0  0  0  0  0  0  0  0  0  0
   -1.5380   15.0200   -2.9270 O   0  0  0  0  0  0  0  0  0  0  0  0
   -3.6830   15.3990   -3.4580 O   0  0  0  0  0  0  0  0  0  0  0  0
  1  2  1  0
  2  3  2  0
  2  4  1  0
  3  5  1  0
  4  6  2  0
  5  6  1  0
  6  7  1  0
  7  8  1  0
  8  9  1  0
  9 10  2  0
 11  9  1  6
 11 12  1  0
 11 13  1  0
 11 14  1  0
 12 15  1  6
 13 16  1  0
 12 17  1  0
 14 18  1  0
 17 18  2  0
 16 19  1  6
 15 20  2  0
 16 20  1  0
 19 21  2  0
 19 22  1  0
M  END
