mac-x0564-mac-x0319
     RDKit          3D

 18 21  0  0  0  0  0  0  0  0999 V2000
    0.2260   12.6900   -1.4050 N   0  0  0  0  0  0  0  0  0  0  0  0
    0.1430   11.8150   -2.5680 C   0  0  2  0  0  0  0  0  0  0  0  0
    0.7570   10.5890   -2.2790 O   0  0  0  0  0  0  0  0  0  0  0  0
   -0.3420   13.6980   -2.2090 C   0  0  1  0  0  0  0  0  0  0  0  0
    0.7660   12.6880   -3.7280 C   0  0  0  0  0  0  0  0  0  0  0  0
   -1.3370   14.7320   -1.8100 C   0  0  1  0  0  0  0  0  0  0  0  0
    0.6150   14.0790   -3.1850 N   0  0  0  0  0  0  0  0  0  0  0  0
   -2.2400   14.6020   -3.0050 C   0  0  2  0  0  0  0  0  0  0  0  0
   -0.0220   15.1650   -3.9420 C   0  0  1  0  0  0  0  0  0  0  0  0
   -2.2080   14.5510   -0.6880 O   0  0  0  0  0  0  0  0  0  0  0  0
    0.6750   15.4330   -5.1300 O   0  0  0  0  0  0  0  0  0  0  0  0
   -1.4380   14.9020   -4.2340 N   0  0  0  0  0  0  0  0  0  0  0  0
   -3.1550   15.5830   -1.0010 C   0  0  1  0  0  0  0  0  0  0  0  0
   -3.3540   15.5340   -2.5440 C   0  0  2  0  0  0  0  0  0  0  0  0
   -4.7520   15.1970   -2.9980 C   0  0  0  0  0  0  0  0  0  0  0  0
   -4.4060   15.5270   -0.1750 C   0  0  0  0  0  0  0  0  0  0  0  0
   -5.7800   15.1140   -2.1400 C   0  0  0  0  0  0  0  0  0  0  0  0
   -5.6130   15.3180   -0.7220 C   0  0  0  0  0  0  0  0  0  0  0  0
  1  2  1  0
  2  3  1  1
  4  1  1  1
  2  5  1  0
  4  6  1  0
  4  7  1  0
  5  7  1  0
  6  8  1  0
  7  9  1  0
  6 10  1  1
  9 11  1  6
  8 12  1  6
  9 12  1  0
 10 13  1  0
  8 14  1  0
 13 14  1  0
 14 15  1  1
 13 16  1  1
 15 17  2  0
 16 18  2  0
 17 18  1  0
M  END
