mac-x0204-mac-x0510
     RDKit          3D

 21 23  0  0  0  0  0  0  0  0999 V2000
    0.0420   12.7160   -2.0770 O   0  0  0  0  0  0  0  0  0  0  0  0
   -0.1470   13.9610   -2.5410 C   0  0  0  0  0  0  0  0  0  0  0  0
    0.4660   14.9200   -2.1030 O   0  0  0  0  0  0  0  0  0  0  0  0
   -1.1080   14.0190   -3.6440 C   0  0  0  0  0  0  0  0  0  0  0  0
   -2.4250   14.5550   -3.7040 C   0  0  0  0  0  0  0  0  0  0  0  0
   -0.6050   13.4340   -4.7880 C   0  0  0  0  0  0  0  0  0  0  0  0
   -3.2610   15.1390   -2.6960 N   0  0  0  0  0  0  0  0  0  0  0  0
   -3.0590   14.4880   -4.9580 C   0  0  0  0  0  0  0  0  0  0  0  0
   -1.2540   13.3400   -5.9610 N   0  0  0  0  0  0  0  0  0  0  0  0
   -4.2940   15.0280   -5.1140 O   0  0  0  0  0  0  0  0  0  0  0  0
   -2.4640   13.8870   -6.0240 C   0  0  0  0  0  0  0  0  0  0  0  0
   -3.1910   15.2440   -1.3930 C   0  0  0  0  0  0  0  0  0  0  0  0
   -2.2430   14.9220   -0.3670 C   0  0  0  0  0  0  0  0  0  0  0  0
   -4.3150   15.7790   -0.8090 N   0  0  0  0  0  0  0  0  0  0  0  0
   -4.8380   15.2800    0.3680 C   0  0  0  0  0  0  0  0  0  0  0  0
   -2.6300   14.8240    0.9530 C   0  0  0  0  0  0  0  0  0  0  0  0
   -0.9030   14.6750   -0.3260 N   0  0  0  0  0  0  0  0  0  0  0  0
   -6.0380   15.0720    0.5250 O   0  0  0  0  0  0  0  0  0  0  0  0
   -3.9170   15.0120    1.3370 N   0  0  0  0  0  0  0  0  0  0  0  0
   -1.6080   14.5360    1.7820 N   0  0  0  0  0  0  0  0  0  0  0  0
   -0.5720   14.4500    0.9850 C   0  0  0  0  0  0  0  0  0  0  0  0
  1  2  1  0
  2  3  2  0
  2  4  1  0
  4  5  2  0
  4  6  1  0
  5  7  1  0
  5  8  1  0
  6  9  2  0
  8 10  1  0
  8 11  2  0
  9 11  1  0
  7 12  2  3
 12 13  1  0
 12 14  1  0
 14 15  1  0
 13 16  2  0
 13 17  1  0
 15 18  2  0
 15 19  1  0
 16 19  1  0
 16 20  1  0
 17 21  1  0
 20 21  2  0
M  END
