mac-x0375-mac-x0436
     RDKit          3D

 17 18  0  0  0  0  0  0  0  0999 V2000
    1.2790   12.7830   -2.3740 O   0  0  0  0  0  0  0  0  0  0  0  0
    0.7940   11.9410   -3.3080 C   0  0  0  0  0  0  0  0  0  0  0  0
    0.5110   10.7930   -3.0180 O   0  0  0  0  0  0  0  0  0  0  0  0
    0.6700   12.6010   -4.6760 C   0  0  2  0  0  0  0  0  0  0  0  0
    0.3980   11.7180   -5.7590 O   0  0  0  0  0  0  0  0  0  0  0  0
    2.0320   13.1960   -4.9560 C   0  0  0  0  0  0  0  0  0  0  0  0
   -0.7630   10.9850   -5.7700 C   0  0  0  0  0  0  0  0  0  0  0  0
   -1.9880   11.1100   -4.9390 C   0  0  0  0  0  0  0  0  0  0  0  0
   -1.0250    9.9670   -6.5870 C   0  0  0  0  0  0  0  0  0  0  0  0
   -2.2130   11.9360   -4.0650 O   0  0  0  0  0  0  0  0  0  0  0  0
   -0.2130    9.4070   -7.6350 C   0  0  0  0  0  0  0  0  0  0  0  0
   -2.3250    9.3900   -6.3250 C   0  0  0  0  0  0  0  0  0  0  0  0
   -2.9420   10.0520   -5.3410 C   0  0  0  0  0  0  0  0  0  0  0  0
    1.0770   10.0070   -7.9230 C   0  0  0  0  0  0  0  0  0  0  0  0
   -0.6550    8.3610   -8.3240 C   0  0  0  0  0  0  0  0  0  0  0  0
   -2.7650    8.2390   -7.1010 C   0  0  0  0  0  0  0  0  0  0  0  0
   -1.9440    7.7580   -8.0570 C   0  0  0  0  0  0  0  0  0  0  0  0
  1  2  1  0
  2  3  2  0
  2  4  1  0
  4  5  1  0
  4  6  1  6
  5  7  1  0
  7  8  1  0
  7  9  2  0
  8 10  2  0
  9 11  1  0
  9 12  1  0
  8 13  1  0
 12 13  2  0
 11 14  1  0
 11 15  2  0
 12 16  1  0
 15 17  1  0
 16 17  2  0
M  END
