mac-x0404-mac-x0303
     RDKit          3D

 29 32  0  0  0  0  0  0  0  0999 V2000
    1.2180   13.0730   -2.1450 O   0  0  0  0  0  0  0  0  0  0  0  0
    1.1270   12.1960   -3.1620 C   0  0  0  0  0  0  0  0  0  0  0  0
    0.5070   11.1540   -2.9990 O   0  0  0  0  0  0  0  0  0  0  0  0
    1.8400   12.6120   -4.4480 C   0  0  0  0  0  0  0  0  0  0  0  0
    1.6320   13.9690   -4.8440 O   0  0  0  0  0  0  0  0  0  0  0  0
    0.3350   14.3710   -4.7110 C   0  0  0  0  0  0  0  0  0  0  0  0
    0.0010   15.7160   -4.9410 C   0  0  0  0  0  0  0  0  0  0  0  0
   -0.6100   13.4280   -4.3450 C   0  0  0  0  0  0  0  0  0  0  0  0
   -1.3270   16.1270   -4.7810 C   0  0  0  0  0  0  0  0  0  0  0  0
   -1.9090   13.8170   -4.1750 C   0  0  0  0  0  0  0  0  0  0  0  0
    0.9740   16.6390   -5.3200 C   0  0  0  0  0  0  0  0  0  0  0  0
   -2.2750   15.1390   -4.3710 C   0  0  0  0  0  0  0  0  0  0  0  0
   -1.6080   17.4950   -5.0350 C   0  0  0  0  0  0  0  0  0  0  0  0
    0.6840   17.9760   -5.5580 C   0  0  0  0  0  0  0  0  0  0  0  0
   -3.7050   15.4200   -4.1050 C   0  0  0  0  0  0  0  0  0  0  0  0
   -0.6200   18.4040   -5.4170 C   0  0  0  0  0  0  0  0  0  0  0  0
   -4.1720   15.2520   -2.6320 C   0  0  0  0  0  0  0  0  0  0  0  0
   -5.5540   15.1410   -2.3500 C   0  0  0  0  0  0  0  0  0  0  0  0
   -3.2640   15.2020   -1.5500 C   0  0  0  0  0  0  0  0  0  0  0  0
   -5.9500   14.9810   -1.0140 C   0  0  0  0  0  0  0  0  0  0  0  0
   -3.6890   15.0460   -0.2150 C   0  0  0  0  0  0  0  0  0  0  0  0
   -7.1870   14.8380   -0.4260 N   0  0  0  0  0  0  0  0  0  0  0  0
   -5.0590   14.9310    0.0480 C   0  0  0  0  0  0  0  0  0  0  0  0
   -7.0070   14.7090    0.9270 C   0  0  0  0  0  0  0  0  0  0  0  0
   -5.7210   14.7640    1.2410 N   0  0  0  0  0  0  0  0  0  0  0  0
   -8.3480   14.5020    2.0730 S   0  0  0  0  0  0  0  0  0  0  0  0
   -8.0490   13.0450    2.8570 N   0  0  0  0  0  0  0  0  0  0  0  0
   -8.1950   15.5540    3.0490 O   0  0  0  0  0  0  0  0  0  0  0  0
   -9.5380   14.3860    1.2640 O   0  0  0  0  0  0  0  0  0  0  0  0
  1  2  1  0
  2  3  2  0
  2  4  1  0
  4  5  1  0
  5  6  1  0
  6  7  2  0
  6  8  1  0
  7  9  1  0
  8 10  2  0
  7 11  1  0
  9 12  2  0
 10 12  1  0
  9 13  1  0
 11 14  2  0
 12 15  1  0
 13 16  2  0
 14 16  1  0
 15 17  1  0
 17 18  2  0
 17 19  1  0
 18 20  1  0
 19 21  2  0
 20 22  1  0
 20 23  2  0
 21 23  1  0
 22 24  1  0
 23 25  1  0
 24 25  2  0
 24 26  1  0
 26 27  1  0
 26 28  2  0
 26 29  2  0
M  END
