mac-x0588-diamond-x0681_0_A
     RDKit          3D

 27 31  0  0  0  0  0  0  0  0999 V2000
   -2.9910   15.0050    2.0200 N   0  0  0  0  0  0  0  0  0  0  0  0
   -2.9720   14.1290    0.8790 C   0  0  2  0  0  0  0  0  0  0  0  0
   -1.6330   14.1760    0.1070 C   0  0  1  0  0  0  0  0  0  0  0  0
   -4.0760   14.6040    0.1400 N   0  0  0  0  0  0  0  0  0  0  0  0
   -3.7380   15.9020   -0.3680 C   0  0  0  0  0  0  0  0  0  0  0  0
   -1.4380   15.5440   -0.5270 C   0  0  2  0  0  0  0  0  0  0  0  0
   -0.4290   14.1410    0.9350 N   0  0  0  0  0  0  0  0  0  0  0  0
   -2.6000   15.9930   -1.2280 N   0  0  0  0  0  0  0  0  0  0  0  0
   -0.1730   15.2540   -1.1340 N   0  0  0  0  0  0  0  0  0  0  0  0
    0.5430   14.6800   -0.0280 C   0  0  0  0  0  0  0  0  0  0  0  0
   -2.7990   15.7370   -2.5980 C   0  0  0  0  0  0  0  0  0  0  0  0
   -4.0000   15.1080   -2.8900 C   0  0  0  0  0  0  0  0  0  0  0  0
   -1.6080   16.2550   -3.4630 C   0  0  2  0  0  0  0  0  0  0  0  0
   -4.2550   14.8350   -4.2500 N   0  0  0  0  0  0  0  0  0  0  0  0
   -1.9470   17.4730   -4.1770 O   0  0  0  0  0  0  0  0  0  0  0  0
   -0.7670   15.4800   -4.4580 C   0  0  0  0  0  0  0  0  0  0  0  0
   -5.1970   14.6340   -1.9780 C   0  0  1  0  0  0  0  0  0  0  0  0
    0.1390   16.6000   -4.9470 C   0  0  0  0  0  0  0  0  0  0  0  0
   -0.8050   17.7940   -4.9860 C   0  0  0  0  0  0  0  0  0  0  0  0
   -5.5030   13.1730   -1.6890 C   0  0  0  0  0  0  0  0  0  0  0  0
   -5.5180   15.5630   -0.7590 C   0  0  0  0  0  0  0  0  0  0  0  0
   -6.1130   12.7710   -0.5140 N   0  0  0  0  0  0  0  0  0  0  0  0
   -5.5340   14.8100    0.5980 C   0  0  0  0  0  0  0  0  0  0  0  0
   -5.2700   12.1190   -2.4480 N   0  0  0  0  0  0  0  0  0  0  0  0
   -6.5030   13.6570    0.5490 C   0  0  0  0  0  0  0  0  0  0  0  0
   -6.2700   11.4280   -0.5380 C   0  0  0  0  0  0  0  0  0  0  0  0
   -5.7430   11.0400   -1.7420 C   0  0  0  0  0  0  0  0  0  0  0  0
  2  1  1  1
  2  3  1  0
  2  4  1  0
  4  5  1  0
  3  6  1  0
  3  7  1  1
  5  8  1  0
  6  8  1  0
  6  9  1  6
  7 10  1  0
  9 10  1  0
  8 11  1  0
 11 12  2  3
 13 11  1  6
 12 14  1  0
 13 15  1  0
 13 16  1  0
 17 12  1  1
 16 18  1  0
 15 19  1  0
 18 19  1  0
 17 20  1  0
 17 21  1  0
 20 22  1  0
 21 23  1  0
 20 24  2  0
 22 25  1  0
 23 25  1  0
 22 26  1  0
 24 27  1  0
 26 27  2  0
M  END
