mac-x0354-mac-x0453
     RDKit          3D

 26 28  0  0  0  0  0  0  0  0999 V2000
    0.5510   11.1410   -8.2530 C   0  0  0  0  0  0  0  0  0  0  0  0
    0.9030   11.5960   -6.9100 N   0  0  0  0  0  0  0  0  0  0  0  0
    1.8680   12.4410   -6.6210 N   0  0  0  0  0  0  0  0  0  0  0  0
    0.2700   11.1940   -5.7840 C   0  0  0  0  0  0  0  0  0  0  0  0
    1.9160   12.6290   -5.3120 C   0  0  0  0  0  0  0  0  0  0  0  0
    0.9100   11.8400   -4.7440 C   0  0  0  0  0  0  0  0  0  0  0  0
   -0.8210   10.2660   -5.8350 C   0  0  0  0  0  0  0  0  0  0  0  0
    0.7260   11.8280   -3.2800 C   0  0  0  0  0  0  0  0  0  0  0  0
   -0.5940    9.0240   -6.4500 C   0  0  0  0  0  0  0  0  0  0  0  0
   -2.0650   10.4820   -5.3450 C   0  0  0  0  0  0  0  0  0  0  0  0
    0.8860   12.7220   -2.5110 N   0  0  0  0  0  0  0  0  0  0  0  0
    0.2970   10.5380   -2.6890 O   0  0  0  0  0  0  0  0  0  0  0  0
   -1.5960    8.0870   -6.5380 C   0  0  0  0  0  0  0  0  0  0  0  0
   -3.0970    9.5630   -5.4170 C   0  0  0  0  0  0  0  0  0  0  0  0
    1.0950   13.7940   -1.7360 C   0  0  0  0  0  0  0  0  0  0  0  0
   -2.8420    8.3560   -6.0240 C   0  0  0  0  0  0  0  0  0  0  0  0
   -0.1260   14.3290   -1.0020 C   0  0  0  0  0  0  0  0  0  0  0  0
   -1.2680   14.4660   -1.9720 C   0  0  0  0  0  0  0  0  0  0  0  0
   -2.5270   14.6720   -1.3450 N   0  0  0  0  0  0  0  0  0  0  0  0
   -2.8410   14.4910   -0.0520 C   0  0  0  0  0  0  0  0  0  0  0  0
   -3.6490   15.0940   -1.9600 C   0  0  0  0  0  0  0  0  0  0  0  0
   -4.1590   14.7970    0.1370 C   0  0  0  0  0  0  0  0  0  0  0  0
   -4.6530   15.1760   -1.0810 N   0  0  0  0  0  0  0  0  0  0  0  0
   -4.9330   14.7380    1.3830 C   0  0  0  0  0  0  0  0  0  0  0  0
   -6.1860   13.9350    1.2090 C   0  0  0  0  0  0  0  0  0  0  0  0
   -7.0020   14.0960    2.3660 N   0  0  0  0  0  0  0  0  0  0  0  0
  1  2  1  0
  2  3  1  0
  2  4  1  0
  3  5  2  0
  4  6  2  0
  5  6  1  0
  4  7  1  0
  6  8  1  0
  7  9  2  0
  7 10  1  0
  8 11  2  3
  8 12  1  0
  9 13  1  0
 10 14  2  0
 11 15  1  0
 13 16  2  0
 14 16  1  0
 15 17  1  0
 17 18  1  0
 18 19  1  0
 19 20  1  0
 19 21  1  0
 20 22  2  0
 21 23  2  0
 22 23  1  0
 22 24  1  0
 24 25  1  0
 25 26  1  0
M  END
