mac-x0116-diamond-x0844_0_A
     RDKit          3D

 24 27  0  0  0  0  0  0  0  0999 V2000
   -6.6550   14.3170    2.5450 C   0  0  0  0  0  0  0  0  0  0  0  0
   -6.3750   12.8380    2.2080 C   0  0  2  0  0  0  0  0  0  0  0  0
   -7.1610   12.3910    0.9540 C   0  0  1  0  0  0  0  0  0  0  0  0
   -6.8730   11.9190    3.3320 C   0  0  0  0  0  0  0  0  0  0  0  0
   -7.5150   10.7900    2.6150 C   0  0  0  0  0  0  0  0  0  0  0  0
   -7.6650   11.0340    1.3190 C   0  0  0  0  0  0  0  0  0  0  0  0
   -8.3420   13.3310    0.6520 C   0  0  0  0  0  0  0  0  0  0  0  0
   -7.9860   14.1210   -0.5140 N   0  0  0  0  0  0  0  0  0  0  0  0
   -6.7800   14.5360   -0.6380 C   0  0  0  0  0  0  0  0  0  0  0  0
   -5.8900   14.2100    0.3890 N   0  0  0  0  0  0  0  0  0  0  0  0
   -6.2460   15.3230   -1.8130 C   0  0  0  0  0  0  0  0  0  0  0  0
   -4.6170   14.8870    0.6540 C   0  0  1  0  0  0  0  0  0  0  0  0
   -4.7840   15.1870   -1.5910 C   0  0  1  0  0  0  0  0  0  0  0  0
   -3.6000   15.4240   -3.1300 Br  0  0  0  0  0  0  0  0  0  0  0  0
   -3.4650   14.2030    0.0290 C   0  0  0  0  0  0  0  0  0  0  0  0
   -4.5100   15.9770   -0.3390 C   0  0  0  0  0  0  0  0  0  0  0  0
   -3.7310   13.5280   -1.1460 N   0  0  0  0  0  0  0  0  0  0  0  0
   -2.2140   14.2370    0.4680 C   0  0  0  0  0  0  0  0  0  0  0  0
   -2.7310   13.0400   -1.9160 C   0  0  0  0  0  0  0  0  0  0  0  0
   -1.2120   13.6070   -0.3920 C   0  0  0  0  0  0  0  0  0  0  0  0
   -1.5720   14.7510    1.5500 N   0  0  0  0  0  0  0  0  0  0  0  0
   -1.4880   13.0420   -1.5980 N   0  0  0  0  0  0  0  0  0  0  0  0
   -0.0550   13.7030    0.1490 N   0  0  0  0  0  0  0  0  0  0  0  0
   -0.3370   14.3980    1.3200 C   0  0  0  0  0  0  0  0  0  0  0  0
  2  1  1  1
  2  3  1  0
  2  4  1  0
  4  5  1  0
  3  6  1  0
  5  6  2  0
  3  7  1  1
  7  8  1  0
  8  9  2  3
  9 10  1  0
  9 11  1  0
 10 12  1  0
 11 13  1  0
 13 14  1  6
 12 15  1  6
 12 16  1  0
 13 16  1  0
 15 17  1  0
 15 18  2  0
 17 19  1  0
 18 20  1  0
 18 21  1  0
 19 22  2  0
 20 22  1  0
 20 23  2  0
 21 24  2  0
 23 24  1  0
M  END
