mac-x0451-mac-x0361
     RDKit          3D

 15 17  0  0  0  0  0  0  0  0999 V2000
   -6.5100   14.6230    1.1650 N   0  0  0  0  0  0  0  0  0  0  0  0
   -6.5460   14.6950   -0.2140 C   0  0  0  0  0  0  0  0  0  0  0  0
   -7.6200   14.5030   -0.7650 O   0  0  0  0  0  0  0  0  0  0  0  0
   -5.2920   14.5240    1.9290 C   0  0  0  0  0  0  0  0  0  0  0  0
   -4.0500   14.9790    1.1830 C   0  0  2  0  0  0  0  0  0  0  0  0
   -5.2240   15.0230   -0.9430 C   0  0  1  0  0  0  0  0  0  0  0  0
   -4.0520   14.4060   -0.1980 C   0  0  1  0  0  0  0  0  0  0  0  0
   -5.0990   14.7110   -2.4560 C   0  0  0  0  0  0  0  0  0  0  0  0
   -2.8580   14.6160    1.9860 C   0  0  0  0  0  0  0  0  0  0  0  0
   -2.7820   14.9050   -0.8300 C   0  0  2  0  0  0  0  0  0  0  0  0
   -1.2310   14.3630    1.4530 S   0  0  0  0  0  0  0  0  0  0  0  0
   -3.7420   15.1460   -3.0370 C   0  0  2  0  0  0  0  0  0  0  0  0
   -3.5300   14.6620   -4.2730 F   0  0  0  0  0  0  0  0  0  0  0  0
   -2.5990   14.6340   -2.2630 C   0  0  0  0  0  0  0  0  0  0  0  0
   -1.4560   14.5990   -0.2160 C   0  0  0  0  0  0  0  0  0  0  0  0
  1  2  1  0
  2  3  2  0
  1  4  1  0
  5  4  1  1
  2  6  1  0
  7  5  1  1
  6  7  1  0
  6  8  1  6
  5  9  1  0
  7 10  1  0
  9 11  2  0
  8 12  1  0
 12 13  1  6
 10 14  1  6
 12 14  1  0
 10 15  1  0
 11 15  2  0
M  END
