mac-x0555-mac-x0437
     RDKit          3D

 28 31  0  0  0  0  0  0  0  0999 V2000
   -7.4730   14.2770    2.8300 N   0  0  0  0  0  0  0  0  0  0  0  0
   -6.9160   14.5070    1.5760 C   0  0  0  0  0  0  0  0  0  0  0  0
   -7.6580   14.5330    0.4010 C   0  0  0  0  0  0  0  0  0  0  0  0
   -5.5470   14.7290    1.4490 C   0  0  0  0  0  0  0  0  0  0  0  0
   -4.9690   14.9640    0.1960 C   0  0  0  0  0  0  0  0  0  0  0  0
   -7.1450   14.7570   -0.8320 N   0  0  0  0  0  0  0  0  0  0  0  0
   -5.8220   14.9690   -0.9270 C   0  0  0  0  0  0  0  0  0  0  0  0
   -3.5870   15.1870    0.0510 C   0  0  0  0  0  0  0  0  0  0  0  0
   -5.2510   15.2020   -2.1700 C   0  0  0  0  0  0  0  0  0  0  0  0
   -3.0230   15.4160   -1.2100 C   0  0  0  0  0  0  0  0  0  0  0  0
   -1.5270   15.6480   -1.3590 C   0  0  0  0  0  0  0  0  0  0  0  0
   -3.8760   15.4230   -2.3250 C   0  0  0  0  0  0  0  0  0  0  0  0
   -0.7000   14.3640   -1.1640 C   0  0  0  0  0  0  0  0  0  0  0  0
    0.5220   14.3030   -2.0980 C   0  0  0  0  0  0  0  0  0  0  0  0
    1.2060   13.0350   -2.0410 O   0  0  0  0  0  0  0  0  0  0  0  0
    1.0930   12.2280   -3.1310 C   0  0  0  0  0  0  0  0  0  0  0  0
    0.6820   11.0770   -3.0930 O   0  0  0  0  0  0  0  0  0  0  0  0
    1.5490   12.9370   -4.3920 C   0  0  0  0  0  0  0  0  0  0  0  0
    0.3820   13.1910   -5.3500 C   0  0  0  0  0  0  0  0  0  0  0  0
   -0.4450   12.0200   -5.5860 N   0  0  0  0  0  0  0  0  0  0  0  0
   -1.5850   11.7070   -4.8950 C   0  0  0  0  0  0  0  0  0  0  0  0
   -0.2390   11.0380   -6.5220 C   0  0  0  0  0  0  0  0  0  0  0  0
   -2.1250   10.5880   -5.3220 N   0  0  0  0  0  0  0  0  0  0  0  0
   -1.2990   10.1560   -6.3330 C   0  0  0  0  0  0  0  0  0  0  0  0
    0.7430   10.8330   -7.4950 C   0  0  0  0  0  0  0  0  0  0  0  0
   -1.3970    9.0110   -7.1350 C   0  0  0  0  0  0  0  0  0  0  0  0
    0.6320    9.6870   -8.2880 C   0  0  0  0  0  0  0  0  0  0  0  0
   -0.4200    8.7860   -8.1140 C   0  0  0  0  0  0  0  0  0  0  0  0
  1  2  1  0
  2  3  2  0
  2  4  1  0
  4  5  2  0
  3  6  1  0
  5  7  1  0
  6  7  2  0
  5  8  1  0
  7  9  1  0
  8 10  2  0
 10 11  1  0
  9 12  2  0
 10 12  1  0
 11 13  1  0
 13 14  1  0
 14 15  1  0
 15 16  1  0
 16 17  2  0
 16 18  1  0
 18 19  1  0
 19 20  1  0
 20 21  1  0
 20 22  1  0
 21 23  2  0
 22 24  2  0
 23 24  1  0
 22 25  1  0
 24 26  1  0
 25 27  2  0
 26 28  2  0
 27 28  1  0
M  END
