mac-x0305-mac-x0277
     RDKit          3D

 21 22  0  0  0  0  0  0  0  0999 V2000
   -0.1780   12.7550   -1.6180 N   0  0  0  0  0  0  0  0  0  0  0  0
   -0.3370   14.1060   -1.4590 C   0  0  0  0  0  0  0  0  0  0  0  0
    0.5350   14.8890   -1.8000 O   0  0  0  0  0  0  0  0  0  0  0  0
    0.4950   12.2800   -2.6300 C   0  0  0  0  0  0  0  0  0  0  0  0
    0.6030   10.9510   -2.7770 O   0  0  0  0  0  0  0  0  0  0  0  0
    1.2090   13.0870   -3.7220 C   0  0  0  0  0  0  0  0  0  0  0  0
   -1.6590   14.5930   -0.8720 C   0  0  0  0  0  0  0  0  0  0  0  0
   -1.9600   14.8190    0.5000 C   0  0  0  0  0  0  0  0  0  0  0  0
   -2.6000   14.8120   -1.8450 N   0  0  0  0  0  0  0  0  0  0  0  0
    0.5700   14.3930   -4.1600 C   0  0  0  0  0  0  0  0  0  0  0  0
   -1.0920   14.6320    1.5550 O   0  0  0  0  0  0  0  0  0  0  0  0
   -3.2480   15.2780    0.8140 C   0  0  0  0  0  0  0  0  0  0  0  0
   -3.8190   15.2530   -1.4950 C   0  0  0  0  0  0  0  0  0  0  0  0
   -0.7750   14.4480   -4.5640 C   0  0  0  0  0  0  0  0  0  0  0  0
    1.3220   15.5780   -4.1720 C   0  0  0  0  0  0  0  0  0  0  0  0
   -4.1840   15.4990   -0.1900 C   0  0  0  0  0  0  0  0  0  0  0  0
   -1.3530   15.6580   -4.9650 C   0  0  0  0  0  0  0  0  0  0  0  0
    0.7430   16.7860   -4.5740 C   0  0  0  0  0  0  0  0  0  0  0  0
   -3.0130   15.6440   -5.4430 Cl  0  0  0  0  0  0  0  0  0  0  0  0
   -0.5940   16.8280   -4.9690 C   0  0  0  0  0  0  0  0  0  0  0  0
   -1.2550   18.3500   -5.4490 Cl  0  0  0  0  0  0  0  0  0  0  0  0
  1  2  1  0
  2  3  2  0
  1  4  2  3
  4  5  1  0
  4  6  1  0
  2  7  1  0
  7  8  2  0
  7  9  1  0
  6 10  1  0
  8 11  1  0
  8 12  1  0
  9 13  2  0
 10 14  2  0
 10 15  1  0
 12 16  2  0
 13 16  1  0
 14 17  1  0
 15 18  2  0
 17 19  1  0
 17 20  2  0
 18 20  1  0
 20 21  1  0
M  END
