mac-x0357-mac-x0415
     RDKit          3D

 22 24  0  0  0  0  0  0  0  0999 V2000
    1.7850   13.2560   -5.1510 C   0  0  0  0  0  0  0  0  0  0  0  0
    0.8930   12.0850   -5.2160 C   0  0  0  0  0  0  0  0  0  0  0  0
    0.5890   11.4030   -6.4140 C   0  0  0  0  0  0  0  0  0  0  0  0
    1.0730   14.3770   -4.3740 C   0  0  1  0  0  0  0  0  0  0  0  0
    0.3150   11.6230   -4.0260 C   0  0  0  0  0  0  0  0  0  0  0  0
    1.9320   15.4280   -3.7280 C   0  0  0  0  0  0  0  0  0  0  0  0
    0.0170   15.1860   -5.1130 C   0  0  2  0  0  0  0  0  0  0  0  0
    1.0650   11.6540   -7.6470 O   0  0  0  0  0  0  0  0  0  0  0  0
    0.5360   12.2030   -2.6210 C   0  0  0  0  0  0  0  0  0  0  0  0
   -0.5370   10.5120   -4.1250 C   0  0  0  0  0  0  0  0  0  0  0  0
   -0.2730   10.3280   -6.4590 C   0  0  0  0  0  0  0  0  0  0  0  0
    1.4940   16.7360   -4.2710 N   0  0  0  0  0  0  0  0  0  0  0  0
    0.0800   16.5090   -4.4080 C   0  0  1  0  0  0  0  0  0  0  0  0
   -1.4220   14.6360   -5.0370 C   0  0  0  0  0  0  0  0  0  0  0  0
   -0.3570   13.2610   -2.2960 O   0  0  0  0  0  0  0  0  0  0  0  0
    1.8330   12.7110   -2.4500 O   0  0  0  0  0  0  0  0  0  0  0  0
    0.4230   11.1440   -1.7080 O   0  0  0  0  0  0  0  0  0  0  0  0
   -0.8450    9.8780   -5.3050 C   0  0  0  0  0  0  0  0  0  0  0  0
   -0.7330   17.5030   -5.1350 C   0  0  0  0  0  0  0  0  0  0  0  0
   -2.4790   15.7680   -5.0010 C   0  0  2  0  0  0  0  0  0  0  0  0
   -3.9730   15.2130   -6.1360 Br  0  0  0  0  0  0  0  0  0  0  0  0
   -1.9820   17.1400   -5.4370 C   0  0  0  0  0  0  0  0  0  0  0  0
  1  2  1  0
  2  3  2  0
  4  1  1  6
  2  5  1  0
  4  6  1  0
  4  7  1  0
  3  8  1  0
  5  9  1  0
  5 10  2  0
  3 11  1  0
  6 12  1  0
  7 13  1  0
 12 13  1  0
  7 14  1  1
  9 15  1  0
  9 16  1  0
  9 17  1  0
 10 18  1  0
 11 18  2  0
 13 19  1  6
 14 20  1  0
 20 21  1  6
 19 22  2  0
 20 22  1  0
M  END
