mac-x0321-diamond-x0766_0_A
     RDKit          3D

 23 25  0  0  0  0  0  0  0  0999 V2000
   -4.5220   15.5930    1.6330 Cl  0  0  0  0  0  0  0  0  0  0  0  0
   -4.9000   15.4220   -0.0320 C   0  0  0  0  0  0  0  0  0  0  0  0
   -3.8520   15.3830   -0.8930 C   0  0  0  0  0  0  0  0  0  0  0  0
   -6.1930   15.3180   -0.5240 C   0  0  0  0  0  0  0  0  0  0  0  0
   -4.0490   15.2260   -2.2620 C   0  0  0  0  0  0  0  0  0  0  0  0
   -6.4020   15.1740   -1.8950 C   0  0  0  0  0  0  0  0  0  0  0  0
   -2.8010   15.1690   -3.0310 C   0  0  0  0  0  0  0  0  0  0  0  0
   -5.3250   15.1220   -2.7660 C   0  0  0  0  0  0  0  0  0  0  0  0
   -2.2880   16.4220   -3.3850 O   0  0  0  0  0  0  0  0  0  0  0  0
   -2.7500   14.2820   -4.1320 O   0  0  0  0  0  0  0  0  0  0  0  0
   -1.9760   14.6640   -1.9560 C   0  0  0  0  0  0  0  0  0  0  0  0
   -0.7220   14.2900   -2.0790 C   0  0  0  0  0  0  0  0  0  0  0  0
   -2.5970   14.5310   -0.3600 S   0  0  0  0  0  0  0  0  0  0  0  0
   -0.0880   14.3560   -3.4220 C   0  0  2  0  0  0  0  0  0  0  0  0
   -0.1960   13.8820   -0.8130 C   0  0  0  0  0  0  0  0  0  0  0  0
   -1.1190   13.9710    0.2030 C   0  0  0  0  0  0  0  0  0  0  0  0
    0.4620   13.0510   -3.9810 C   0  0  2  0  0  0  0  0  0  0  0  0
    1.0790   15.2990   -3.3630 C   0  0  0  0  0  0  0  0  0  0  0  0
    0.7320   12.0650   -2.8770 C   0  0  0  0  0  0  0  0  0  0  0  0
    1.6780   13.4610   -4.8160 C   0  0  0  0  0  0  0  0  0  0  0  0
    1.8280   14.9640   -4.6010 C   0  0  0  0  0  0  0  0  0  0  0  0
    1.4900   12.2930   -1.9630 O   0  0  0  0  0  0  0  0  0  0  0  0
    0.0520   10.9030   -2.9660 O   0  0  0  0  0  0  0  0  0  0  0  0
  1  2  1  0
  2  3  2  0
  2  4  1  0
  3  5  1  0
  4  6  2  0
  5  7  1  0
  5  8  2  0
  6  8  1  0
  7  9  1  0
  7 10  1  0
  7 11  1  0
 11 12  2  0
 11 13  1  0
 14 12  1  1
 12 15  1  0
 13 16  1  0
 15 16  2  0
 14 17  1  0
 14 18  1  0
 17 19  1  1
 17 20  1  0
 18 21  1  0
 20 21  1  0
 19 22  2  0
 19 23  1  0
M  END
