mac-x0415-mac-x0555
     RDKit          3D

 27 30  0  0  0  0  0  0  0  0999 V2000
   -0.1020   11.1210   -2.8170 O   0  0  0  0  0  0  0  0  0  0  0  0
    0.6510   12.2350   -2.8290 C   0  0  0  0  0  0  0  0  0  0  0  0
    0.9840   12.8050   -1.8010 O   0  0  0  0  0  0  0  0  0  0  0  0
    1.0330   12.6890   -4.2150 C   0  0  0  0  0  0  0  0  0  0  0  0
    0.8630   14.1400   -4.4240 C   0  0  0  0  0  0  0  0  0  0  0  0
    1.8040   15.1800   -3.9880 C   0  0  0  0  0  0  0  0  0  0  0  0
   -0.1010   14.9040   -4.9460 C   0  0  0  0  0  0  0  0  0  0  0  0
    1.4980   16.4180   -4.2260 N   0  0  0  0  0  0  0  0  0  0  0  0
    0.3060   16.3290   -5.0150 C   0  0  2  0  0  0  0  0  0  0  0  0
   -1.3930   14.5600   -5.4650 C   0  0  0  0  0  0  0  0  0  0  0  0
   -0.7700   17.3170   -4.8460 C   0  0  0  0  0  0  0  0  0  0  0  0
   -2.3120   15.5580   -5.5470 C   0  0  0  0  0  0  0  0  0  0  0  0
   -3.5840   15.3240   -6.0290 O   0  0  0  0  0  0  0  0  0  0  0  0
   -2.0130   16.9280   -5.1220 C   0  0  0  0  0  0  0  0  0  0  0  0
   -4.2740   14.7590   -4.9230 C   0  0  0  0  0  0  0  0  0  0  0  0
   -3.4890   15.2880   -3.7280 C   0  0  0  0  0  0  0  0  0  0  0  0
   -4.1280   15.1670   -2.3970 C   0  0  0  0  0  0  0  0  0  0  0  0
   -5.5030   14.9650   -2.2170 C   0  0  0  0  0  0  0  0  0  0  0  0
   -3.2890   15.2600   -1.3010 C   0  0  0  0  0  0  0  0  0  0  0  0
   -6.0420   14.8480   -0.9500 C   0  0  0  0  0  0  0  0  0  0  0  0
   -3.7960   15.1610   -0.0360 C   0  0  0  0  0  0  0  0  0  0  0  0
   -5.1580   14.9520    0.1350 C   0  0  0  0  0  0  0  0  0  0  0  0
   -7.3660   14.6380   -0.7770 N   0  0  0  0  0  0  0  0  0  0  0  0
   -5.6610   14.8370    1.4000 C   0  0  0  0  0  0  0  0  0  0  0  0
   -7.8120   14.5180    0.5080 C   0  0  0  0  0  0  0  0  0  0  0  0
   -6.9990   14.6070    1.6320 C   0  0  0  0  0  0  0  0  0  0  0  0
   -7.4200   14.4800    2.9490 N   0  0  0  0  0  0  0  0  0  0  0  0
  1  2  1  0
  2  3  2  0
  2  4  1  0
  4  5  1  0
  5  6  1  0
  5  7  2  0
  6  8  2  0
  7  9  1  0
  8  9  1  0
  7 10  1  0
  9 11  1  1
 10 12  2  0
 12 13  1  0
 11 14  2  0
 12 14  1  0
 13 15  1  0
 15 16  1  0
 16 17  1  0
 17 18  2  0
 17 19  1  0
 18 20  1  0
 19 21  2  0
 20 22  2  0
 21 22  1  0
 20 23  1  0
 22 24  1  0
 23 25  2  0
 24 26  2  0
 25 26  1  0
 26 27  1  0
M  END
