mac-x0348-mac-x0587
     RDKit          3D

 25 27  0  0  0  0  0  0  0  0999 V2000
    1.0830   18.6240   -5.9020 C   0  0  0  0  0  0  0  0  0  0  0  0
    0.3710   17.5270   -5.3400 N   0  0  0  0  0  0  0  0  0  0  0  0
    0.8600   16.6210   -4.4540 C   0  0  0  0  0  0  0  0  0  0  0  0
   -0.9200   17.2380   -5.6230 C   0  0  0  0  0  0  0  0  0  0  0  0
   -0.1470   15.7320   -4.1690 C   0  0  0  0  0  0  0  0  0  0  0  0
   -1.2750   16.1060   -4.9140 C   0  0  0  0  0  0  0  0  0  0  0  0
   -1.7970   17.8770   -6.4380 C   0  0  0  0  0  0  0  0  0  0  0  0
   -0.1400   14.5790   -3.2420 C   0  0  1  0  0  0  0  0  0  0  0  0
   -2.5690   15.5760   -5.0410 C   0  0  0  0  0  0  0  0  0  0  0  0
   -3.0360   17.3350   -6.5250 C   0  0  0  0  0  0  0  0  0  0  0  0
    0.4310   13.2500   -3.7850 C   0  0  0  0  0  0  0  0  0  0  0  0
    0.7540   14.9780   -2.0680 C   0  0  0  0  0  0  0  0  0  0  0  0
   -1.6940   14.3870   -2.9670 C   0  0  0  0  0  0  0  0  0  0  0  0
   -3.4520   16.2030   -5.8640 C   0  0  0  0  0  0  0  0  0  0  0  0
    0.4040   12.1950   -2.7090 C   0  0  0  0  0  0  0  0  0  0  0  0
   -2.4170   13.7320   -3.7370 O   0  0  0  0  0  0  0  0  0  0  0  0
   -2.2900   14.9990   -1.8850 N   0  0  0  0  0  0  0  0  0  0  0  0
    0.6600   12.4350   -1.5190 O   0  0  0  0  0  0  0  0  0  0  0  0
    0.0570   10.8230   -3.0540 N   0  0  0  0  0  0  0  0  0  0  0  0
   -3.7450   15.0370   -1.7710 C   0  0  0  0  0  0  0  0  0  0  0  0
   -1.7800   14.6890   -0.6160 C   0  0  0  0  0  0  0  0  0  0  0  0
    0.6120   10.0340   -2.3010 O   0  0  0  0  0  0  0  0  0  0  0  0
   -0.6280   14.4780   -0.3020 O   0  0  0  0  0  0  0  0  0  0  0  0
   -4.0000   15.2200   -0.2880 C   0  0  0  0  0  0  0  0  0  0  0  0
   -2.8170   14.6700    0.3140 N   0  0  0  0  0  0  0  0  0  0  0  0
  1  2  1  0
  2  3  1  0
  2  4  1  0
  3  5  2  0
  4  6  2  0
  5  6  1  0
  4  7  1  0
  5  8  1  0
  6  9  1  0
  7 10  2  0
  8 11  1  0
  8 12  1  1
  8 13  1  0
  9 14  2  0
 10 14  1  0
 11 15  1  0
 13 16  2  0
 13 17  1  0
 15 18  2  0
 15 19  1  0
 17 20  1  0
 17 21  1  0
 19 22  2  0
 21 23  2  0
 20 24  1  0
 21 25  1  0
 24 25  1  0
M  END
