mac-x0567-diamond-x1012_0_A
     RDKit          3D

 23 25  0  0  0  0  0  0  0  0999 V2000
   -0.0030   13.5480    0.0810 N   0  0  0  0  0  0  0  0  0  0  0  0
   -1.1870   14.1310    0.3870 C   0  0  0  0  0  0  0  0  0  0  0  0
   -1.3970   14.5690    1.6520 N   0  0  0  0  0  0  0  0  0  0  0  0
   -2.3610   14.4420   -0.2840 C   0  0  0  0  0  0  0  0  0  0  0  0
   -2.5880   15.1350    1.8540 N   0  0  0  0  0  0  0  0  0  0  0  0
   -3.2060   15.0910    0.6870 C   0  0  0  0  0  0  0  0  0  0  0  0
   -2.7350   14.2150   -1.6180 C   0  0  0  0  0  0  0  0  0  0  0  0
   -4.4730   15.5730    0.3640 C   0  0  0  0  0  0  0  0  0  0  0  0
   -4.0250   14.7290   -1.9050 C   0  0  0  0  0  0  0  0  0  0  0  0
   -1.9870   13.5440   -2.6960 C   0  0  0  0  0  0  0  0  0  0  0  0
   -4.8580   15.3800   -0.9640 C   0  0  0  0  0  0  0  0  0  0  0  0
   -0.9450   14.4660   -3.2750 C   0  0  2  0  0  0  0  0  0  0  0  0
   -1.3110   14.8700   -4.7000 C   0  0  0  0  0  0  0  0  0  0  0  0
    0.5030   13.9980   -3.1970 C   0  0  1  0  0  0  0  0  0  0  0  0
    0.6100   12.5820   -2.6580 C   0  0  0  0  0  0  0  0  0  0  0  0
    1.2980   14.4480   -4.4200 C   0  0  0  0  0  0  0  0  0  0  0  0
   -0.5430   16.0290   -5.1040 N   0  0  0  0  0  0  0  0  0  0  0  0
   -1.1850   17.2320   -4.8600 C   0  0  0  0  0  0  0  0  0  0  0  0
    0.5490   11.5820   -3.5480 O   0  0  0  0  0  0  0  0  0  0  0  0
    0.7290   12.3280   -1.4720 O   0  0  0  0  0  0  0  0  0  0  0  0
    0.8960   15.8560   -4.9070 C   0  0  0  0  0  0  0  0  0  0  0  0
   -0.3980   18.3190   -4.7570 N   0  0  0  0  0  0  0  0  0  0  0  0
   -2.3990   17.3720   -4.7320 O   0  0  0  0  0  0  0  0  0  0  0  0
  1  2  1  0
  2  3  1  0
  2  4  2  0
  3  5  1  0
  4  6  1  0
  5  6  2  0
  4  7  1  0
  6  8  1  0
  7  9  2  0
  7 10  1  0
  8 11  2  0
  9 11  1  0
 12 10  1  6
 12 13  1  0
 12 14  1  0
 14 15  1  6
 14 16  1  0
 13 17  1  0
 17 18  1  0
 15 19  1  0
 15 20  2  0
 16 21  1  0
 17 21  1  0
 18 22  1  0
 18 23  2  0
M  END
