mac-x0394-diamond-x0969_0_A
     RDKit          3D

 24 26  0  0  0  0  0  0  0  0999 V2000
    1.0070   18.3150   -5.3070 Cl  0  0  0  0  0  0  0  0  0  0  0  0
    0.3120   16.7730   -5.0950 C   0  0  0  0  0  0  0  0  0  0  0  0
   -1.0600   16.6590   -5.2130 C   0  0  0  0  0  0  0  0  0  0  0  0
    1.1040   15.6580   -4.8100 C   0  0  0  0  0  0  0  0  0  0  0  0
    0.5130   14.4050   -4.6460 C   0  0  0  0  0  0  0  0  0  0  0  0
   -1.6580   15.4170   -5.0490 C   0  0  0  0  0  0  0  0  0  0  0  0
   -3.1380   15.2630   -5.1420 C   0  0  0  0  0  0  0  0  0  0  0  0
    1.3330   13.1760   -4.3310 C   0  0  0  0  0  0  0  0  0  0  0  0
   -0.8710   14.2970   -4.7690 C   0  0  0  0  0  0  0  0  0  0  0  0
    0.8840   12.5050   -3.0520 C   0  0  0  0  0  0  0  0  0  0  0  0
   -3.4760   15.3980   -3.6750 C   0  0  0  0  0  0  0  0  0  0  0  0
    0.2370   11.3410   -3.2840 O   0  0  0  0  0  0  0  0  0  0  0  0
    1.0350   12.8860   -1.9060 O   0  0  0  0  0  0  0  0  0  0  0  0
   -4.6910   14.7050   -3.0920 C   0  0  0  0  0  0  0  0  0  0  0  0
   -4.5900   14.8480   -1.5950 C   0  0  0  0  0  0  0  0  0  0  0  0
   -5.6910   14.7490   -0.6950 C   0  0  0  0  0  0  0  0  0  0  0  0
   -3.3640   15.0790   -1.0630 C   0  0  0  0  0  0  0  0  0  0  0  0
   -6.9730   14.5320   -0.8840 N   0  0  0  0  0  0  0  0  0  0  0  0
   -5.4350   14.8950    0.6570 N   0  0  0  0  0  0  0  0  0  0  0  0
   -3.1310   15.2320    0.3580 C   0  0  0  0  0  0  0  0  0  0  0  0
   -6.6660   14.7370    1.2660 C   0  0  0  0  0  0  0  0  0  0  0  0
   -7.5830   14.5240    0.3510 N   0  0  0  0  0  0  0  0  0  0  0  0
   -4.1690   15.1430    1.1850 C   0  0  0  0  0  0  0  0  0  0  0  0
   -6.8430   14.8060    2.6000 N   0  0  0  0  0  0  0  0  0  0  0  0
  1  2  1  0
  2  3  2  0
  2  4  1  0
  4  5  2  0
  3  6  1  0
  6  7  1  0
  5  8  1  0
  5  9  1  0
  6  9  2  0
  8 10  1  0
  7 11  1  0
 10 12  1  0
 10 13  2  0
 11 14  1  0
 14 15  1  0
 15 16  1  0
 15 17  2  0
 16 18  2  0
 16 19  1  0
 17 20  1  0
 19 21  1  0
 18 22  1  0
 21 22  2  0
 19 23  1  0
 20 23  2  0
 21 24  1  0
M  END
