mac-x0396-diamond-x1015_0_A
     RDKit          3D

 26 28  0  0  0  0  0  0  0  0999 V2000
   -2.9360   15.2020    0.7240 N   0  0  0  0  0  0  0  0  0  0  0  0
   -3.8200   15.1280   -0.3320 C   0  0  0  0  0  0  0  0  0  0  0  0
   -3.4160   15.1730   -1.5520 N   0  0  0  0  0  0  0  0  0  0  0  0
   -5.2520   14.9580   -0.0710 C   0  0  0  0  0  0  0  0  0  0  0  0
   -2.0710   15.2800   -2.0700 C   0  0  0  0  0  0  0  0  0  0  0  0
   -6.1240   15.0160   -1.1440 C   0  0  0  0  0  0  0  0  0  0  0  0
   -5.7530   14.7340    1.1920 C   0  0  0  0  0  0  0  0  0  0  0  0
   -2.1080   14.3920   -3.3210 C   0  0  0  0  0  0  0  0  0  0  0  0
   -7.4600   14.8580   -1.0210 N   0  0  0  0  0  0  0  0  0  0  0  0
   -7.1290   14.5650    1.3530 C   0  0  0  0  0  0  0  0  0  0  0  0
   -0.9630   14.5630   -4.3160 C   0  0  0  0  0  0  0  0  0  0  0  0
   -7.9320   14.6350    0.2250 C   0  0  0  0  0  0  0  0  0  0  0  0
    0.2470   13.6700   -4.0050 C   0  0  2  0  0  0  0  0  0  0  0  0
   -0.0900   12.2380   -3.9130 N   0  0  0  0  0  0  0  0  0  0  0  0
    0.6430   13.9070   -2.5520 C   0  0  0  0  0  0  0  0  0  0  0  0
    0.7230   14.9830   -1.9780 O   0  0  0  0  0  0  0  0  0  0  0  0
    0.3350   11.7070   -2.6880 C   0  0  0  0  0  0  0  0  0  0  0  0
    0.9020   12.7150   -1.9750 N   0  0  0  0  0  0  0  0  0  0  0  0
   -0.4780   11.4590   -5.0350 C   0  0  0  0  0  0  0  0  0  0  0  0
    0.2500   10.5510   -2.2660 O   0  0  0  0  0  0  0  0  0  0  0  0
    0.0800   11.6540   -6.3030 C   0  0  0  0  0  0  0  0  0  0  0  0
   -1.4470   10.4520   -4.8910 C   0  0  0  0  0  0  0  0  0  0  0  0
   -0.3140   10.8710   -7.3940 C   0  0  0  0  0  0  0  0  0  0  0  0
   -1.8440    9.6660   -5.9780 C   0  0  0  0  0  0  0  0  0  0  0  0
   -1.2750    9.8790   -7.2260 C   0  0  0  0  0  0  0  0  0  0  0  0
   -1.7640    8.9150   -8.5620 Cl  0  0  0  0  0  0  0  0  0  0  0  0
  1  2  1  0
  2  3  2  3
  2  4  1  0
  3  5  1  0
  4  6  2  0
  4  7  1  0
  5  8  1  0
  6  9  1  0
  7 10  2  0
  8 11  1  0
  9 12  2  0
 10 12  1  0
 13 11  1  1
 13 14  1  0
 13 15  1  0
 15 16  2  0
 14 17  1  0
 15 18  1  0
 17 18  1  0
 14 19  1  0
 17 20  2  0
 19 21  2  0
 19 22  1  0
 21 23  1  0
 22 24  2  0
 23 25  2  0
 24 25  1  0
 25 26  1  0
M  END
