mac-x0337-mac-x0319
     RDKit          3D

 23 24  0  0  0  0  0  0  0  0999 V2000
   -5.9450    9.0690   -1.9890 C   0  0  0  0  0  0  0  0  0  0  0  0
   -5.4040   10.4460   -1.7450 C   0  0  0  0  0  0  0  0  0  0  0  0
   -6.0630   11.3280   -0.8720 C   0  0  0  0  0  0  0  0  0  0  0  0
   -4.2350   10.8520   -2.3920 C   0  0  0  0  0  0  0  0  0  0  0  0
   -3.7320   12.1250   -2.1800 C   0  0  0  0  0  0  0  0  0  0  0  0
   -5.5580   12.6090   -0.6570 C   0  0  0  0  0  0  0  0  0  0  0  0
   -4.3970   12.9930   -1.3210 C   0  0  0  0  0  0  0  0  0  0  0  0
   -3.7310   14.6000   -1.1260 S   0  0  2  0  0  0  0  0  0  0  0  0
   -3.5670   15.0060   -2.5840 N   0  0  0  0  0  0  0  0  0  0  0  0
   -2.7760   14.6580   -0.0440 O   0  0  0  0  0  0  0  0  0  0  0  0
   -4.9460   15.6380   -0.6220 N   0  0  0  0  0  0  0  0  0  0  0  0
   -2.5750   15.9740   -2.9860 C   0  0  0  0  0  0  0  0  0  0  0  0
   -1.3010   15.4390   -3.5800 C   0  0  0  0  0  0  0  0  0  0  0  0
   -0.5150   16.3510   -4.2800 C   0  0  0  0  0  0  0  0  0  0  0  0
   -0.8570   14.1090   -3.4630 C   0  0  0  0  0  0  0  0  0  0  0  0
    0.3630   13.7040   -4.0320 C   0  0  0  0  0  0  0  0  0  0  0  0
    0.6750   15.9550   -4.8400 C   0  0  0  0  0  0  0  0  0  0  0  0
    0.8360   12.2780   -3.8870 C   0  0  0  0  0  0  0  0  0  0  0  0
    1.3610   16.9210   -5.5010 O   0  0  0  0  0  0  0  0  0  0  0  0
    1.1280   14.6440   -4.7240 C   0  0  0  0  0  0  0  0  0  0  0  0
    0.6440   11.7520   -2.4800 C   0  0  0  0  0  0  0  0  0  0  0  0
    0.4550   10.4110   -2.4250 O   0  0  0  0  0  0  0  0  0  0  0  0
    0.6370   12.3820   -1.4360 O   0  0  0  0  0  0  0  0  0  0  0  0
  1  2  1  0
  2  3  2  0
  2  4  1  0
  4  5  2  0
  3  6  1  0
  5  7  1  0
  6  7  2  0
  7  8  1  0
  8  9  2  0
  8 10  2  0
  8 11  1  1
  9 12  1  0
 12 13  1  0
 13 14  2  0
 13 15  1  0
 15 16  2  0
 14 17  1  0
 16 18  1  0
 17 19  1  0
 16 20  1  0
 17 20  2  0
 18 21  1  0
 21 22  1  0
 21 23  2  0
M  END
