mac-x0567-diamond-x0962_0_A
     RDKit          3D

 11 12  0  0  0  0  0  0  0  0999 V2000
    0.2190   13.9380   -0.0570 N   0  0  0  0  0  0  0  0  0  0  0  0
   -1.0300   14.3190    0.3360 C   0  0  0  0  0  0  0  0  0  0  0  0
   -1.3810   14.4010    1.6470 N   0  0  0  0  0  0  0  0  0  0  0  0
   -2.1740   14.6860   -0.3430 C   0  0  0  0  0  0  0  0  0  0  0  0
   -2.6520   14.7890    1.8660 N   0  0  0  0  0  0  0  0  0  0  0  0
   -3.1740   14.9790    0.6510 C   0  0  0  0  0  0  0  0  0  0  0  0
   -2.3650   14.7690   -1.7280 C   0  0  0  0  0  0  0  0  0  0  0  0
   -4.4640   15.3940    0.2870 C   0  0  0  0  0  0  0  0  0  0  0  0
   -3.6680   15.1840   -2.0610 C   0  0  0  0  0  0  0  0  0  0  0  0
   -1.4360   14.4960   -2.7200 N   0  0  0  0  0  0  0  0  0  0  0  0
   -4.6740   15.4870   -1.1010 C   0  0  0  0  0  0  0  0  0  0  0  0
  1  2  1  0
  2  3  1  0
  2  4  2  0
  3  5  1  0
  4  6  1  0
  5  6  2  0
  4  7  1  0
  6  8  1  0
  7  9  2  0
  7 10  1  0
  8 11  2  0
  9 11  1  0
M  END
