mac-x0255-mac-x0344
     RDKit          3D

 21 23  0  0  0  0  0  0  0  0999 V2000
    0.8450   11.1310   -2.5900 O   0  0  0  0  0  0  0  0  0  0  0  0
    0.4060   11.9250   -3.6440 C   0  0  0  0  0  0  0  0  0  0  0  0
   -0.9230   12.2020   -3.2790 O   0  0  0  0  0  0  0  0  0  0  0  0
    1.2410   13.2370   -3.7140 C   0  0  1  0  0  0  0  0  0  0  0  0
    0.2970   11.3080   -4.9610 N   0  0  0  0  0  0  0  0  0  0  0  0
    2.3990   13.0600   -4.5400 O   0  0  0  0  0  0  0  0  0  0  0  0
    0.5180   14.4210   -4.2260 C   0  0  0  0  0  0  0  0  0  0  0  0
   -0.6630   10.5500   -5.6360 C   0  0  0  0  0  0  0  0  0  0  0  0
    1.0900   15.6240   -4.5230 C   0  0  0  0  0  0  0  0  0  0  0  0
   -1.1670   14.4240   -4.5150 S   0  0  0  0  0  0  0  0  0  0  0  0
   -0.3410   10.1040   -6.9360 C   0  0  0  0  0  0  0  0  0  0  0  0
   -1.9220   10.1860   -5.1470 C   0  0  0  0  0  0  0  0  0  0  0  0
    0.1560   16.5820   -4.9950 C   0  0  0  0  0  0  0  0  0  0  0  0
   -1.1370   16.0540   -5.0410 C   0  0  0  0  0  0  0  0  0  0  0  0
   -1.2260    9.3330   -7.7020 C   0  0  0  0  0  0  0  0  0  0  0  0
   -2.8140    9.4130   -5.9090 C   0  0  0  0  0  0  0  0  0  0  0  0
    0.3570   17.9120   -5.3990 C   0  0  0  0  0  0  0  0  0  0  0  0
   -2.2270   16.8170   -5.4770 C   0  0  0  0  0  0  0  0  0  0  0  0
   -2.4650    8.9860   -7.1860 C   0  0  0  0  0  0  0  0  0  0  0  0
   -0.7240   18.6740   -5.8330 C   0  0  0  0  0  0  0  0  0  0  0  0
   -1.9960   18.1350   -5.8720 C   0  0  0  0  0  0  0  0  0  0  0  0
  2  1  1  0
  2  3  1  0
  2  4  1  0
  2  5  1  0
  4  6  1  6
  4  7  1  0
  5  8  1  0
  7  9  2  0
  7 10  1  0
  8 11  2  0
  8 12  1  0
  9 13  1  0
 10 14  1  0
 13 14  2  0
 11 15  1  0
 12 16  2  0
 13 17  1  0
 14 18  1  0
 15 19  2  0
 16 19  1  0
 17 20  2  0
 18 21  2  0
 20 21  1  0
M  END
