mac-x0212-diamond-x0685_1_A
     RDKit          3D

 26 27  0  0  0  0  0  0  0  0999 V2000
   -6.5400   12.7630    1.3860 C   0  0  0  0  0  0  0  0  0  0  0  0
   -6.9440   14.4740    1.0830 S   0  0  0  0  0  0  0  0  0  0  0  0
   -7.8710   14.9230    2.1020 O   0  0  0  0  0  0  0  0  0  0  0  0
   -7.2670   14.6120   -0.3230 O   0  0  0  0  0  0  0  0  0  0  0  0
   -5.4380   15.2000    1.3080 N   0  0  0  0  0  0  0  0  0  0  0  0
   -4.5010   15.0100    0.2610 C   0  0  0  0  0  0  0  0  0  0  0  0
   -3.3300   14.3530    0.5780 C   0  0  0  0  0  0  0  0  0  0  0  0
   -4.7440   15.4500   -1.0550 C   0  0  0  0  0  0  0  0  0  0  0  0
   -2.3890   14.0970   -0.3980 C   0  0  0  0  0  0  0  0  0  0  0  0
   -3.7890   15.1910   -2.0540 C   0  0  0  0  0  0  0  0  0  0  0  0
   -2.6110   14.4980   -1.7110 C   0  0  0  0  0  0  0  0  0  0  0  0
   -1.5760   14.1330   -2.6910 C   0  0  0  0  0  0  0  0  0  0  0  0
   -0.6670   13.2990   -2.2710 N   0  0  0  0  0  0  0  0  0  0  0  0
   -1.7080   14.6430   -3.9390 O   0  0  0  0  0  0  0  0  0  0  0  0
    0.4740   12.6280   -3.1100 S   0  0  0  0  0  0  0  0  0  0  0  0
    0.2070   12.6160   -4.8150 C   0  0  0  0  0  0  0  0  0  0  0  0
    1.9260   13.1660   -2.7370 O   0  0  0  0  0  0  0  0  0  0  0  0
    0.4090   11.0890   -2.6640 O   0  0  0  0  0  0  0  0  0  0  0  0
   -1.2320   12.1600   -5.0270 C   0  0  0  0  0  0  0  0  0  0  0  0
   -1.3410   10.7000   -5.1900 N   0  0  0  0  0  0  0  0  0  0  0  0
   -0.7440   10.3330   -6.4720 C   0  0  0  0  0  0  0  0  0  0  0  0
   -0.6160    8.8040   -6.5330 C   0  0  0  0  0  0  0  0  0  0  0  0
   -1.5510   10.8980   -7.6520 C   0  0  0  0  0  0  0  0  0  0  0  0
    0.0640    8.4140   -7.8370 C   0  0  0  0  0  0  0  0  0  0  0  0
   -0.9580   10.4830   -8.9860 C   0  0  0  0  0  0  0  0  0  0  0  0
   -0.7070    8.9720   -9.0420 C   0  0  0  0  0  0  0  0  0  0  0  0
  1  2  1  0
  2  3  2  0
  2  4  2  0
  2  5  1  0
  5  6  1  0
  6  7  2  0
  6  8  1  0
  7  9  1  0
  8 10  2  0
  9 11  2  0
 10 11  1  0
 11 12  1  0
 12 13  2  3
 12 14  1  0
 15 13  1  0
 15 16  1  0
 15 17  1  0
 15 18  1  0
 16 19  1  0
 19 20  1  0
 20 21  1  0
 21 22  1  0
 21 23  1  0
 22 24  1  0
 23 25  1  0
 24 26  1  0
 25 26  1  0
M  END
