mac-x0565-diamond-x0421_0_A
     RDKit          3D

 23 26  0  0  0  0  0  0  0  0999 V2000
   -7.1090   13.3040   -0.3910 O   0  0  0  0  0  0  0  0  0  0  0  0
   -7.0260   14.1200   -1.4530 C   0  0  0  0  0  0  0  0  0  0  0  0
   -8.0060   14.7050   -1.8650 O   0  0  0  0  0  0  0  0  0  0  0  0
   -5.6470   14.1920   -1.9880 C   0  0  0  0  0  0  0  0  0  0  0  0
   -5.1110   13.1050   -2.7140 C   0  0  0  0  0  0  0  0  0  0  0  0
   -4.8630   15.3150   -1.7680 C   0  0  0  0  0  0  0  0  0  0  0  0
   -3.8070   13.2050   -3.1850 C   0  0  0  0  0  0  0  0  0  0  0  0
   -3.5740   15.3200   -2.2610 C   0  0  0  0  0  0  0  0  0  0  0  0
   -2.6420   16.2520   -2.1190 N   0  0  0  0  0  0  0  0  0  0  0  0
   -3.0800   14.2970   -2.9550 C   0  0  0  0  0  0  0  0  0  0  0  0
   -3.0840   12.2960   -3.8940 O   0  0  0  0  0  0  0  0  0  0  0  0
   -1.7360   15.9780   -1.1450 C   0  0  0  0  0  0  0  0  0  0  0  0
   -1.8180   14.2650   -3.4710 O   0  0  0  0  0  0  0  0  0  0  0  0
   -1.7780   12.9160   -3.9160 C   0  0  0  0  0  0  0  0  0  0  0  0
   -0.5240   16.0560   -1.2180 O   0  0  0  0  0  0  0  0  0  0  0  0
   -2.4360   15.5160    0.0650 C   0  0  0  0  0  0  0  0  0  0  0  0
   -1.8350   15.0340    1.2010 C   0  0  0  0  0  0  0  0  0  0  0  0
   -3.8230   15.5030    0.2240 N   0  0  0  0  0  0  0  0  0  0  0  0
   -2.8500   14.7280    2.0520 N   0  0  0  0  0  0  0  0  0  0  0  0
   -4.0380   15.0200    1.4270 C   0  0  0  0  0  0  0  0  0  0  0  0
   -5.4440   14.8070    2.0590 C   0  0  0  0  0  0  0  0  0  0  0  0
   -6.6770   14.6930    1.2050 C   0  0  0  0  0  0  0  0  0  0  0  0
   -6.1130   13.4680    1.8540 C   0  0  0  0  0  0  0  0  0  0  0  0
  1  2  1  0
  2  3  2  0
  2  4  1  0
  4  5  2  0
  4  6  1  0
  5  7  1  0
  6  8  2  0
  8  9  1  0
  7 10  2  0
  8 10  1  0
  7 11  1  0
  9 12  1  0
 10 13  1  0
 11 14  1  0
 13 14  1  0
 12 15  2  0
 12 16  1  0
 16 17  2  0
 16 18  1  0
 17 19  1  0
 18 20  2  0
 19 20  1  0
 20 21  1  0
 21 22  1  0
 21 23  1  0
 22 23  1  0
M  END
