mac-x0379-mac-x0373
     RDKit          3D

 17 18  0  0  0  0  0  0  0  0999 V2000
   -5.0580   15.1420    0.5590 C   0  0  0  0  0  0  0  0  0  0  0  0
   -4.2880   15.1080   -0.7080 C   0  0  0  0  0  0  0  0  0  0  0  0
   -4.8020   15.3640   -1.8860 N   0  0  0  0  0  0  0  0  0  0  0  0
   -2.6220   14.7090   -0.6850 S   0  0  0  0  0  0  0  0  0  0  0  0
   -3.8230   15.2360   -2.8440 C   0  0  0  0  0  0  0  0  0  0  0  0
   -2.5700   14.8830   -2.3970 C   0  0  0  0  0  0  0  0  0  0  0  0
   -1.3500   14.6680   -3.2650 C   0  0  1  0  0  0  0  0  0  0  0  0
   -1.3550   15.5730   -4.3600 O   0  0  0  0  0  0  0  0  0  0  0  0
   -0.1010   14.6740   -2.5030 N   0  0  0  0  0  0  0  0  0  0  0  0
   -1.5920   13.2760   -3.8770 C   0  0  0  0  0  0  0  0  0  0  0  0
    0.1680   13.6100   -1.8720 C   0  0  0  0  0  0  0  0  0  0  0  0
   -0.9360   12.8640   -5.0490 C   0  0  0  0  0  0  0  0  0  0  0  0
   -2.4930   12.3720   -3.2690 C   0  0  0  0  0  0  0  0  0  0  0  0
    1.2840   13.3810   -1.1660 O   0  0  0  0  0  0  0  0  0  0  0  0
   -1.1690   11.6000   -5.5950 C   0  0  0  0  0  0  0  0  0  0  0  0
   -2.7250   11.1100   -3.8160 C   0  0  0  0  0  0  0  0  0  0  0  0
   -2.0650   10.7240   -4.9770 C   0  0  0  0  0  0  0  0  0  0  0  0
  1  2  1  0
  2  3  2  0
  2  4  1  0
  3  5  1  0
  4  6  1  0
  5  6  2  0
  6  7  1  0
  7  8  1  6
  7  9  1  0
  7 10  1  0
  9 11  2  3
 10 12  2  0
 10 13  1  0
 11 14  1  0
 12 15  1  0
 13 16  2  0
 15 17  2  0
 16 17  1  0
M  END
