mac-x0402-mac-x0344
     RDKit          3D

 26 28  0  0  0  0  0  0  0  0999 V2000
   -2.0410   14.7550   -3.7560 Cl  0  0  0  0  0  0  0  0  0  0  0  0
   -3.1600   14.8450   -2.4400 C   0  0  0  0  0  0  0  0  0  0  0  0
   -4.4650   15.1160   -2.8010 C   0  0  0  0  0  0  0  0  0  0  0  0
   -2.7630   14.6560   -1.0960 C   0  0  0  0  0  0  0  0  0  0  0  0
   -1.3190   14.3390   -0.7590 C   0  0  0  0  0  0  0  0  0  0  0  0
   -3.8020   14.7840   -0.1370 C   0  0  0  0  0  0  0  0  0  0  0  0
   -5.4560   15.2230   -1.8430 C   0  0  0  0  0  0  0  0  0  0  0  0
   -0.8360   13.1750   -1.6430 C   0  0  0  0  0  0  0  0  0  0  0  0
   -5.1240   15.0560   -0.5010 C   0  0  0  0  0  0  0  0  0  0  0  0
   -3.7600   14.6570    1.5870 S   0  0  0  0  0  0  0  0  0  0  0  0
    0.6570   12.9080   -1.5220 C   0  0  0  0  0  0  0  0  0  0  0  0
   -5.4420   14.9760    1.6500 C   0  0  0  0  0  0  0  0  0  0  0  0
   -6.0280   15.1460    0.5130 N   0  0  0  0  0  0  0  0  0  0  0  0
   -6.1090   15.0580    2.7990 N   0  0  0  0  0  0  0  0  0  0  0  0
    1.3780   13.5090   -2.6400 N   0  0  0  0  0  0  0  0  0  0  0  0
    1.2730   12.9660   -3.8060 C   0  0  0  0  0  0  0  0  0  0  0  0
    1.8890   13.4260   -4.9020 O   0  0  0  0  0  0  0  0  0  0  0  0
    0.4230   11.7170   -4.0780 C   0  0  0  0  0  0  0  0  0  0  0  0
    0.1080   11.0240   -3.1170 O   0  0  0  0  0  0  0  0  0  0  0  0
    0.1370   11.5610   -5.4160 N   0  0  0  0  0  0  0  0  0  0  0  0
   -0.7450   10.6350   -6.0010 C   0  0  0  0  0  0  0  0  0  0  0  0
   -0.3680   10.0640   -7.2210 C   0  0  0  0  0  0  0  0  0  0  0  0
   -1.9630   10.2680   -5.4240 C   0  0  0  0  0  0  0  0  0  0  0  0
   -1.1990    9.1360   -7.8580 C   0  0  0  0  0  0  0  0  0  0  0  0
   -2.7930    9.3400   -6.0620 C   0  0  0  0  0  0  0  0  0  0  0  0
   -2.4130    8.7760   -7.2740 C   0  0  0  0  0  0  0  0  0  0  0  0
  1  2  1  0
  2  3  2  0
  2  4  1  0
  4  5  1  0
  4  6  2  0
  3  7  1  0
  5  8  1  0
  6  9  1  0
  7  9  2  0
  6 10  1  0
  8 11  1  0
 10 12  1  0
  9 13  1  0
 12 13  2  0
 12 14  1  0
 11 15  1  0
 15 16  2  3
 16 17  1  0
 16 18  1  0
 18 19  2  0
 18 20  1  0
 20 21  1  0
 21 22  2  0
 21 23  1  0
 22 24  1  0
 23 25  2  0
 24 26  2  0
 25 26  1  0
M  END
