mac-x0326-mac-x0138
     RDKit          3D

 23 25  0  0  0  0  0  0  0  0999 V2000
   -5.4230   14.9340   -1.1560 Cl  0  0  0  0  0  0  0  0  0  0  0  0
   -3.6670   14.8050   -1.2950 C   0  0  0  0  0  0  0  0  0  0  0  0
   -3.1570   14.5820   -2.6830 C   0  0  0  0  0  0  0  0  0  0  0  0
   -2.8490   14.8680   -0.2030 C   0  0  0  0  0  0  0  0  0  0  0  0
   -4.1730   14.1960   -3.7170 C   0  0  0  0  0  0  0  0  0  0  0  0
   -1.8660   14.6410   -3.1010 C   0  0  0  0  0  0  0  0  0  0  0  0
   -1.4180   14.8350   -0.0960 C   0  0  2  0  0  0  0  0  0  0  0  0
   -3.0920   15.0090    1.2290 C   0  0  0  0  0  0  0  0  0  0  0  0
   -1.2440   15.8370    0.9360 N   0  0  0  0  0  0  0  0  0  0  0  0
   -1.4810   14.2790   -4.3770 N   0  0  0  0  0  0  0  0  0  0  0  0
   -0.6810   14.9870   -2.3650 C   0  0  0  0  0  0  0  0  0  0  0  0
   -0.4890   15.0750   -1.1360 C   0  0  0  0  0  0  0  0  0  0  0  0
   -0.6190   14.0500    0.6000 N   0  0  0  0  0  0  0  0  0  0  0  0
   -2.1630   14.6260    2.1160 N   0  0  0  0  0  0  0  0  0  0  0  0
   -0.2060   14.4930   -4.5340 C   0  0  0  0  0  0  0  0  0  0  0  0
    0.6780   15.3160   -3.3150 S   0  0  0  0  0  0  0  0  0  0  0  0
   -0.9710   14.0610    1.7070 C   0  0  0  0  0  0  0  0  0  0  0  0
    0.6010   14.0780   -5.6880 C   0  0  0  0  0  0  0  0  0  0  0  0
   -0.0460   13.5360    2.4750 N   0  0  0  0  0  0  0  0  0  0  0  0
    1.5560   12.9690   -5.2500 C   0  0  0  0  0  0  0  0  0  0  0  0
    1.1120   12.2970   -3.9730 C   0  0  0  0  0  0  0  0  0  0  0  0
    0.1450   11.3790   -4.1620 O   0  0  0  0  0  0  0  0  0  0  0  0
    1.5480   12.5010   -2.8520 O   0  0  0  0  0  0  0  0  0  0  0  0
  1  2  1  0
  2  3  1  0
  2  4  2  0
  3  5  1  0
  3  6  2  0
  4  7  1  0
  4  8  1  0
  7  9  1  1
  6 10  1  0
  6 11  1  0
  7 12  1  0
 11 12  2  0
  7 13  1  0
  8 14  2  0
 10 15  2  0
 11 16  1  0
 15 16  1  0
 13 17  2  0
 14 17  1  0
 15 18  1  0
 17 19  1  0
 18 20  1  0
 20 21  1  0
 21 22  1  0
 21 23  2  0
M  END
