mac-x0572-diamond-x0104_0_A
     RDKit          3D

 22 24  0  0  0  0  0  0  0  0999 V2000
   -8.3080   14.8370    2.9150 C   0  0  0  0  0  0  0  0  0  0  0  0
   -7.9830   14.8570    4.2520 N   0  0  0  0  0  0  0  0  0  0  0  0
   -8.9980   14.9390    5.2130 C   0  0  0  0  0  0  0  0  0  0  0  0
   -9.4680   14.8900    2.5230 O   0  0  0  0  0  0  0  0  0  0  0  0
   -7.2610   14.7850    1.7740 C   0  0  0  0  0  0  0  0  0  0  0  0
   -7.7610   14.7440    0.5270 C   0  0  0  0  0  0  0  0  0  0  0  0
   -5.8970   14.8170    2.0530 N   0  0  0  0  0  0  0  0  0  0  0  0
   -9.1170   14.7150    0.2310 O   0  0  0  0  0  0  0  0  0  0  0  0
   -6.8570   14.7450   -0.6490 C   0  0  0  0  0  0  0  0  0  0  0  0
   -5.0110   14.7730    1.0800 C   0  0  0  0  0  0  0  0  0  0  0  0
   -8.8810   15.1120    6.5780 C   0  0  0  0  0  0  0  0  0  0  0  0
  -10.6350   14.8260    4.7490 S   0  0  0  0  0  0  0  0  0  0  0  0
   -7.4010   14.7760   -1.7510 O   0  0  0  0  0  0  0  0  0  0  0  0
   -5.3430   14.6910   -0.4240 C   0  0  1  0  0  0  0  0  0  0  0  0
   -3.5600   14.8190    1.4160 C   0  0  0  0  0  0  0  0  0  0  0  0
  -11.2010   15.0020    6.3460 C   0  0  0  0  0  0  0  0  0  0  0  0
  -10.1610   15.1490    7.2360 C   0  0  0  0  0  0  0  0  0  0  0  0
   -4.7940   13.4970   -0.9700 O   0  0  0  0  0  0  0  0  0  0  0  0
   -2.7480   15.3860    0.5170 C   0  0  0  0  0  0  0  0  0  0  0  0
   -4.4850   15.6520   -1.1660 C   0  0  0  0  0  0  0  0  0  0  0  0
   -3.9800   13.7160   -2.1340 C   0  0  0  0  0  0  0  0  0  0  0  0
   -3.2520   15.9410   -0.7120 C   0  0  0  0  0  0  0  0  0  0  0  0
  1  2  1  0
  2  3  1  0
  1  4  2  0
  1  5  1  0
  5  6  2  0
  5  7  1  0
  6  8  1  0
  6  9  1  0
  7 10  2  0
  3 11  2  0
  3 12  1  0
  9 13  2  0
  9 14  1  0
 10 14  1  0
 10 15  1  0
 12 16  1  0
 11 17  1  0
 16 17  2  0
 14 18  1  6
 15 19  2  0
 14 20  1  0
 18 21  1  0
 19 22  1  0
 20 22  2  0
M  END
