mac-x0263-mac-x0223
     RDKit          3D

 30 32  0  0  0  0  0  0  0  0999 V2000
  -11.3980   14.3240    2.3940 O   0  0  0  0  0  0  0  0  0  0  0  0
  -10.7380   15.4530    2.7400 C   0  0  0  0  0  0  0  0  0  0  0  0
  -11.2050   16.1940    3.5830 O   0  0  0  0  0  0  0  0  0  0  0  0
   -9.4520   15.6640    2.0010 C   0  0  0  0  0  0  0  0  0  0  0  0
   -8.9390   14.3760    1.3790 C   0  0  0  0  0  0  0  0  0  0  0  0
   -7.5670   14.5940    0.8490 C   0  0  0  0  0  0  0  0  0  0  0  0
   -7.2830   14.6950   -0.4950 N   0  0  0  0  0  0  0  0  0  0  0  0
   -6.4770   14.7230    1.5630 N   0  0  0  0  0  0  0  0  0  0  0  0
   -5.9280   14.8980   -0.6350 C   0  0  0  0  0  0  0  0  0  0  0  0
   -5.4530   14.9150    0.6680 C   0  0  0  0  0  0  0  0  0  0  0  0
   -5.0930   15.0620   -1.7530 C   0  0  0  0  0  0  0  0  0  0  0  0
   -4.0920   15.1100    0.9050 C   0  0  0  0  0  0  0  0  0  0  0  0
   -3.7100   15.2420   -1.5070 C   0  0  0  0  0  0  0  0  0  0  0  0
   -3.2360   15.2710   -0.1880 C   0  0  0  0  0  0  0  0  0  0  0  0
   -2.6820   15.3960   -2.6090 C   0  0  0  0  0  0  0  0  0  0  0  0
   -3.0290   14.8960   -4.0200 C   0  0  0  0  0  0  0  0  0  0  0  0
   -3.3800   16.0910   -4.8850 C   0  0  0  0  0  0  0  0  0  0  0  0
   -2.3430   16.9060   -5.3740 O   0  0  0  0  0  0  0  0  0  0  0  0
   -1.3330   16.1430   -5.0940 C   0  0  0  0  0  0  0  0  0  0  0  0
   -0.0760   16.6430   -4.7830 C   0  0  0  0  0  0  0  0  0  0  0  0
   -1.6070   14.7970   -5.1160 C   0  0  0  0  0  0  0  0  0  0  0  0
    0.0930   18.0000   -4.7980 O   0  0  0  0  0  0  0  0  0  0  0  0
   -0.6460   13.8910   -4.8170 C   0  0  0  0  0  0  0  0  0  0  0  0
    0.9180   15.7090   -4.4750 C   0  0  0  0  0  0  0  0  0  0  0  0
    1.1550   18.4280   -5.6240 C   0  0  0  0  0  0  0  0  0  0  0  0
    0.6140   14.3280   -4.4900 C   0  0  0  0  0  0  0  0  0  0  0  0
    1.6030   13.2680   -4.1540 C   0  0  0  0  0  0  0  0  0  0  0  0
    1.0090   12.4300   -3.0390 C   0  0  0  0  0  0  0  0  0  0  0  0
    0.3320   11.4150   -3.1320 O   0  0  0  0  0  0  0  0  0  0  0  0
    1.2910   12.9600   -1.8350 O   0  0  0  0  0  0  0  0  0  0  0  0
  1  2  1  0
  2  3  2  0
  2  4  1  0
  4  5  1  0
  5  6  1  0
  6  7  1  0
  6  8  2  0
  7  9  1  0
  8 10  1  0
  9 10  2  0
  9 11  1  0
 10 12  1  0
 11 13  2  0
 12 14  2  0
 13 14  1  0
 13 15  1  0
 15 16  1  0
 16 17  1  0
 17 18  1  0
 18 19  1  0
 19 20  2  0
 19 21  1  0
 20 22  1  0
 21 23  2  0
 20 24  1  0
 22 25  1  0
 23 26  1  0
 24 26  2  0
 26 27  1  0
 27 28  1  0
 28 29  2  0
 28 30  1  0
M  END
