mac-x0358-mac-x0180
     RDKit          3D

 24 25  0  0  0  0  0  0  0  0999 V2000
    1.3880   12.7980   -2.0460 O   0  0  0  0  0  0  0  0  0  0  0  0
    0.6550   12.1460   -2.9680 C   0  0  0  0  0  0  0  0  0  0  0  0
    0.0610   11.1140   -2.6870 O   0  0  0  0  0  0  0  0  0  0  0  0
    0.6570   12.8220   -4.3110 C   0  0  0  0  0  0  0  0  0  0  0  0
   -0.7100   13.2770   -4.8120 C   0  0  0  0  0  0  0  0  0  0  0  0
   -1.5290   12.4440   -5.5700 C   0  0  0  0  0  0  0  0  0  0  0  0
   -1.1980   14.5600   -4.5280 C   0  0  0  0  0  0  0  0  0  0  0  0
   -1.1480   11.1700   -5.8810 O   0  0  0  0  0  0  0  0  0  0  0  0
   -0.4400   15.4000   -3.7560 N   0  0  0  0  0  0  0  0  0  0  0  0
   -2.7690   12.8700   -6.0470 C   0  0  0  0  0  0  0  0  0  0  0  0
   -2.4320   15.0010   -5.0040 C   0  0  0  0  0  0  0  0  0  0  0  0
   -0.8080   15.7880   -2.5710 C   0  0  0  0  0  0  0  0  0  0  0  0
   -3.2240   14.1570   -5.7660 C   0  0  0  0  0  0  0  0  0  0  0  0
   -0.0270   16.5680   -1.8430 O   0  0  0  0  0  0  0  0  0  0  0  0
   -2.0580   15.5030   -1.7920 C   0  0  0  0  0  0  0  0  0  0  0  0
   -1.9200   15.3150   -0.4070 C   0  0  0  0  0  0  0  0  0  0  0  0
   -3.3430   15.4280   -2.3450 C   0  0  0  0  0  0  0  0  0  0  0  0
   -3.0360   15.0620    0.4080 C   0  0  0  0  0  0  0  0  0  0  0  0
   -4.4580   15.1760   -1.5250 C   0  0  0  0  0  0  0  0  0  0  0  0
   -4.3170   14.9920   -0.1450 C   0  0  0  0  0  0  0  0  0  0  0  0
   -5.4030   14.7400    0.7310 N   0  0  0  0  0  0  0  0  0  0  0  0
   -6.7390   14.7080    0.3570 C   0  0  0  0  0  0  0  0  0  0  0  0
   -7.6700   14.5220    1.5290 C   0  0  0  0  0  0  0  0  0  0  0  0
   -7.1840   14.8200   -0.7780 O   0  0  0  0  0  0  0  0  0  0  0  0
  1  2  1  0
  2  3  2  0
  2  4  1  0
  4  5  1  0
  5  6  2  0
  5  7  1  0
  6  8  1  0
  7  9  1  0
  6 10  1  0
  7 11  2  0
  9 12  2  3
 10 13  2  0
 11 13  1  0
 12 14  1  0
 12 15  1  0
 15 16  2  0
 15 17  1  0
 16 18  1  0
 17 19  2  0
 18 20  2  0
 19 20  1  0
 20 21  1  0
 21 22  1  0
 22 23  1  0
 22 24  2  0
M  END
