mac-x0346-mac-x0263
     RDKit          3D

 19 20  0  0  0  0  0  0  0  0999 V2000
   -7.7950   13.2560   -1.0880 N   0  0  0  0  0  0  0  0  0  0  0  0
   -6.6780   13.8960   -1.5490 C   0  0  0  0  0  0  0  0  0  0  0  0
   -6.7290   14.5810   -2.5590 O   0  0  0  0  0  0  0  0  0  0  0  0
   -5.4030   13.6970   -0.7100 C   0  0  1  0  0  0  0  0  0  0  0  0
   -4.2530   14.5070   -1.4490 C   0  0  1  0  0  0  0  0  0  0  0  0
   -5.8100   13.8880    0.7230 N   0  0  0  0  0  0  0  0  0  0  0  0
   -4.6510   15.7180   -2.0990 O   0  0  0  0  0  0  0  0  0  0  0  0
   -2.9690   14.8050   -0.7250 C   0  0  0  0  0  0  0  0  0  0  0  0
   -5.3180   15.1820    1.0490 C   0  0  1  0  0  0  0  0  0  0  0  0
   -7.2490   14.1890    0.7510 C   0  0  2  0  0  0  0  0  0  0  0  0
   -2.7970   15.2430    0.5130 C   0  0  0  0  0  0  0  0  0  0  0  0
   -3.8870   15.5580    1.4630 C   0  0  0  0  0  0  0  0  0  0  0  0
   -7.2480   15.2870   -0.2570 N   0  0  0  0  0  0  0  0  0  0  0  0
   -5.7990   15.6770   -0.3220 C   0  0  0  0  0  0  0  0  0  0  0  0
   -7.9890   14.6730    2.0310 C   0  0  0  0  0  0  0  0  0  0  0  0
   -9.3150   15.4400    1.8020 C   0  0  0  0  0  0  0  0  0  0  0  0
  -10.4230   15.2630    2.8190 C   0  0  0  0  0  0  0  0  0  0  0  0
  -11.2180   14.1960    2.5970 O   0  0  0  0  0  0  0  0  0  0  0  0
  -10.6250   16.0160    3.7630 O   0  0  0  0  0  0  0  0  0  0  0  0
  1  2  1  0
  2  3  2  0
  4  2  1  6
  4  5  1  0
  4  6  1  0
  5  7  1  1
  5  8  1  0
  6  9  1  0
  6 10  1  0
  8 11  2  0
  9 12  1  6
 11 12  1  0
 10 13  1  0
  9 14  1  0
 13 14  1  0
 10 15  1  1
 15 16  1  0
 16 17  1  0
 17 18  1  0
 17 19  2  0
M  END
