mac-x0161-mac-x0179
     RDKit          3D

 31 35  0  0  0  0  0  0  0  0999 V2000
   -4.6390   15.4580    1.4370 N   0  0  0  0  0  0  0  0  0  0  0  0
   -3.9690   14.6650    0.4360 C   0  0  2  0  0  0  0  0  0  0  0  0
   -2.5270   14.3560    0.8730 C   0  0  1  0  0  0  0  0  0  0  0  0
   -4.0470   15.4720   -0.7760 N   0  0  0  0  0  0  0  0  0  0  0  0
   -3.1520   15.0150   -1.8380 C   0  0  0  0  0  0  0  0  0  0  0  0
   -1.7790   13.8620   -0.3380 C   0  0  1  0  0  0  0  0  0  0  0  0
   -1.6020   15.3770    1.3250 N   0  0  0  0  0  0  0  0  0  0  0  0
   -1.7960   14.9170   -1.2970 N   0  0  0  0  0  0  0  0  0  0  0  0
   -0.4550   13.6390    0.2130 N   0  0  0  0  0  0  0  0  0  0  0  0
   -0.2980   14.7250    1.1750 C   0  0  0  0  0  0  0  0  0  0  0  0
   -0.7230   14.7380   -2.2730 C   0  0  0  0  0  0  0  0  0  0  0  0
   -0.8800   13.5330   -3.0940 C   0  0  0  0  0  0  0  0  0  0  0  0
   -0.8920   13.3940   -4.4220 C   0  0  0  0  0  0  0  0  0  0  0  0
   -1.0450   12.3070   -2.5090 O   0  0  0  0  0  0  0  0  0  0  0  0
   -1.1660   11.3390   -3.5020 N   0  0  0  0  0  0  0  0  0  0  0  0
   -1.0610   12.0280   -4.6500 C   0  0  0  0  0  0  0  0  0  0  0  0
   -1.0860   11.5400   -6.0500 C   0  0  1  0  0  0  0  0  0  0  0  0
    0.2730   11.8430   -6.4940 N   0  0  0  0  0  0  0  0  0  0  0  0
   -1.1530   10.0500   -6.2980 C   0  0  0  0  0  0  0  0  0  0  0  0
   -2.1430   12.2170   -6.9090 C   0  0  0  0  0  0  0  0  0  0  0  0
    1.2500   12.6510   -5.7410 C   0  0  0  0  0  0  0  0  0  0  0  0
    0.6260   10.9460   -7.4570 C   0  0  0  0  0  0  0  0  0  0  0  0
   -0.1060    9.7310   -7.1650 C   0  0  0  0  0  0  0  0  0  0  0  0
   -2.0070    9.0470   -5.8670 C   0  0  0  0  0  0  0  0  0  0  0  0
    1.3760   12.3110   -4.2450 C   0  0  0  0  0  0  0  0  0  0  0  0
    1.3640   11.0770   -8.3850 O   0  0  0  0  0  0  0  0  0  0  0  0
    0.1480    8.4690   -7.6370 C   0  0  0  0  0  0  0  0  0  0  0  0
   -1.7720    7.7470   -6.3360 C   0  0  0  0  0  0  0  0  0  0  0  0
    2.1920   13.1450   -3.5660 O   0  0  0  0  0  0  0  0  0  0  0  0
    0.8490   11.4000   -3.6330 O   0  0  0  0  0  0  0  0  0  0  0  0
   -0.7060    7.4620   -7.2110 C   0  0  0  0  0  0  0  0  0  0  0  0
  2  1  1  1
  2  3  1  0
  2  4  1  0
  4  5  1  0
  3  6  1  0
  3  7  1  6
  5  8  1  0
  6  8  1  0
  6  9  1  1
  7 10  1  0
  9 10  1  0
  8 11  1  0
 11 12  1  0
 12 13  2  0
 12 14  1  0
 14 15  1  0
 13 16  1  0
 15 16  2  0
 16 17  1  0
 17 18  1  0
 17 19  1  0
 17 20  1  6
 18 21  1  0
 18 22  1  0
 19 23  2  0
 22 23  1  0
 19 24  1  0
 21 25  1  0
 22 26  2  0
 23 27  1  0
 24 28  2  0
 25 29  1  0
 25 30  2  0
 27 31  2  0
 28 31  1  0
M  END
