mac-x0116-mac-x0131
     RDKit          3D

 24 27  0  0  0  0  0  0  0  0999 V2000
   -5.9910   14.7380    1.5040 C   0  0  0  0  0  0  0  0  0  0  0  0
   -4.5880   15.1190    1.3190 N   0  0  0  0  0  0  0  0  0  0  0  0
   -3.8240   14.5100    0.2280 C   0  0  1  0  0  0  0  0  0  0  0  0
   -6.3350   13.2970    1.5710 C   0  0  0  0  0  0  0  0  0  0  0  0
   -6.2610   12.5760    0.4160 O   0  0  0  0  0  0  0  0  0  0  0  0
   -6.7510   12.4910    2.6070 C   0  0  0  0  0  0  0  0  0  0  0  0
   -6.9470   11.2150    2.0600 C   0  0  0  0  0  0  0  0  0  0  0  0
   -6.6360   11.3120    0.7260 C   0  0  0  0  0  0  0  0  0  0  0  0
   -4.1770   15.1760   -1.0530 N   0  0  0  0  0  0  0  0  0  0  0  0
   -2.3240   14.7720    0.4800 C   0  0  2  0  0  0  0  0  0  0  0  0
   -5.6180   15.2160   -1.3400 C   0  0  0  0  0  0  0  0  0  0  0  0
   -3.3720   14.6770   -2.2070 C   0  0  1  0  0  0  0  0  0  0  0  0
   -1.5470   14.2940   -0.7330 C   0  0  1  0  0  0  0  0  0  0  0  0
   -1.5820   14.0970    1.5450 N   0  0  0  0  0  0  0  0  0  0  0  0
   -3.8960   15.1530   -3.5760 C   0  0  0  0  0  0  0  0  0  0  0  0
   -1.9510   14.9300   -1.9650 N   0  0  0  0  0  0  0  0  0  0  0  0
   -0.1930   14.5810   -0.3220 N   0  0  0  0  0  0  0  0  0  0  0  0
   -0.1950   14.2360    1.0980 C   0  0  0  0  0  0  0  0  0  0  0  0
   -0.9980   14.7630   -3.0990 C   0  0  0  0  0  0  0  0  0  0  0  0
   -0.7320   13.3460   -3.5020 C   0  0  0  0  0  0  0  0  0  0  0  0
    0.4160   12.5810   -3.6450 C   0  0  0  0  0  0  0  0  0  0  0  0
   -1.8240   12.5910   -3.8060 O   0  0  0  0  0  0  0  0  0  0  0  0
   -1.3870   11.3560   -4.1370 C   0  0  0  0  0  0  0  0  0  0  0  0
   -0.0300   11.2980   -4.0530 C   0  0  0  0  0  0  0  0  0  0  0  0
  1  2  1  0
  3  2  1  1
  1  4  1  0
  4  5  1  0
  4  6  2  0
  6  7  1  0
  5  8  1  0
  7  8  2  0
  3  9  1  0
  3 10  1  0
  9 11  1  0
  9 12  1  0
 10 13  1  0
 10 14  1  1
 12 15  1  6
 12 16  1  0
 13 16  1  0
 13 17  1  1
 14 18  1  0
 17 18  1  0
 16 19  1  0
 19 20  1  0
 20 21  2  0
 20 22  1  0
 22 23  1  0
 21 24  1  0
 23 24  2  0
M  END
