mac-x0588-diamond-x0104_0_A
     RDKit          3D

 34 38  0  0  0  0  0  0  0  0999 V2000
   -3.6520   14.9560    1.6080 N   0  0  0  0  0  0  0  0  0  0  0  0
   -3.1520   15.7160    0.4950 C   0  0  1  0  0  0  0  0  0  0  0  0
   -1.7080   15.4990    0.3250 C   0  0  2  0  0  0  0  0  0  0  0  0
   -3.9060   15.4100   -0.6520 N   0  0  0  0  0  0  0  0  0  0  0  0
   -3.2470   15.7980   -1.8280 C   0  0  0  0  0  0  0  0  0  0  0  0
   -1.1490   15.2770   -1.0680 C   0  0  2  0  0  0  0  0  0  0  0  0
   -1.2840   14.3790    1.1320 N   0  0  0  0  0  0  0  0  0  0  0  0
   -2.1010   14.8880   -2.0650 N   0  0  0  0  0  0  0  0  0  0  0  0
   -0.0220   14.4940   -0.8030 N   0  0  0  0  0  0  0  0  0  0  0  0
    0.0440   14.3160    0.6450 C   0  0  0  0  0  0  0  0  0  0  0  0
   -1.9060   15.0160   -3.5200 C   0  0  1  0  0  0  0  0  0  0  0  0
   -3.1830   14.6640   -4.1860 C   0  0  0  0  0  0  0  0  0  0  0  0
   -1.1170   16.1210   -4.1270 C   0  0  1  0  0  0  0  0  0  0  0  0
   -4.0590   13.6360   -3.4190 C   0  0  0  0  0  0  0  0  0  0  0  0
   -1.7320   17.3810   -4.3470 O   0  0  0  0  0  0  0  0  0  0  0  0
    0.2100   16.5570   -3.6470 C   0  0  0  0  0  0  0  0  0  0  0  0
   -5.0080   14.3200   -2.7060 O   0  0  0  0  0  0  0  0  0  0  0  0
    0.5230   17.6270   -4.6980 C   0  0  0  0  0  0  0  0  0  0  0  0
   -0.8520   18.0470   -5.1550 C   0  0  0  0  0  0  0  0  0  0  0  0
   -5.5080   14.3160   -1.4690 C   0  0  0  0  0  0  0  0  0  0  0  0
   -4.8710   13.7820   -0.4270 N   0  0  0  0  0  0  0  0  0  0  0  0
   -6.7650   14.8930   -1.1980 C   0  0  0  0  0  0  0  0  0  0  0  0
   -5.3990   13.8000    0.8270 C   0  0  0  0  0  0  0  0  0  0  0  0
   -7.3160   14.9180    0.0540 C   0  0  0  0  0  0  0  0  0  0  0  0
   -6.6150   14.3580    1.1250 C   0  0  0  0  0  0  0  0  0  0  0  0
   -7.0690   14.3290    2.4850 N   0  0  0  0  0  0  0  0  0  0  0  0
   -8.3090   15.0590    2.7740 C   0  0  0  0  0  0  0  0  0  0  0  0
   -8.8360   15.1070    3.9670 N   0  0  0  0  0  0  0  0  0  0  0  0
   -8.8070   15.6130    1.7290 O   0  0  0  0  0  0  0  0  0  0  0  0
   -9.4790   15.1400    5.1960 C   0  0  0  0  0  0  0  0  0  0  0  0
   -9.1980   15.1870    6.5240 C   0  0  0  0  0  0  0  0  0  0  0  0
  -11.2560   15.1200    5.2360 S   0  0  0  0  0  0  0  0  0  0  0  0
  -11.4940   15.1700    6.8990 C   0  0  0  0  0  0  0  0  0  0  0  0
  -10.2280   15.2020    7.3910 C   0  0  0  0  0  0  0  0  0  0  0  0
  2  1  1  1
  2  3  1  0
  2  4  1  0
  4  5  1  0
  3  6  1  0
  3  7  1  1
  5  8  1  0
  6  8  1  0
  6  9  1  1
  7 10  1  0
  9 10  1  0
  8 11  1  0
 11 12  1  6
 11 13  1  0
 12 14  1  0
 13 15  1  0
 13 16  1  1
 14 17  1  0
 16 18  1  0
 15 19  1  0
 18 19  1  0
 17 20  1  0
 20 21  2  0
 20 22  1  0
 21 23  1  0
 22 24  2  0
 23 25  2  0
 24 25  1  0
 25 26  1  0
 26 27  1  0
 27 28  1  0
 27 29  2  0
 28 30  1  0
 30 31  2  0
 30 32  1  0
 32 33  1  0
 31 34  1  0
 33 34  2  0
M  END
