mac-x0326-mac-x0124
     RDKit          3D

 21 23  0  0  0  0  0  0  0  0999 V2000
   -6.2620   15.4150   -1.6010 Cl  0  0  0  0  0  0  0  0  0  0  0  0
   -4.5710   14.8310   -1.5030 C   0  0  1  0  0  0  0  0  0  0  0  0
   -3.9670   14.6400   -2.8990 C   0  0  0  0  0  0  0  0  0  0  0  0
   -3.7030   15.8290   -0.7470 C   0  0  0  0  0  0  0  0  0  0  0  0
   -2.4730   14.5990   -2.8200 C   0  0  0  0  0  0  0  0  0  0  0  0
   -2.3550   15.1980   -0.3360 C   0  0  2  0  0  0  0  0  0  0  0  0
   -1.7050   14.3460   -3.9430 N   0  0  0  0  0  0  0  0  0  0  0  0
   -1.7580   14.8230   -1.6660 C   0  0  0  0  0  0  0  0  0  0  0  0
   -2.6170   14.4940    0.9940 C   0  0  1  0  0  0  0  0  0  0  0  0
   -1.2450   16.0980    0.1450 C   0  0  0  0  0  0  0  0  0  0  0  0
   -3.6680   13.5190    1.0990 N   0  0  0  0  0  0  0  0  0  0  0  0
   -0.4230   14.3850   -3.6230 C   0  0  0  0  0  0  0  0  0  0  0  0
   -0.0850   14.6940   -1.9760 S   0  0  0  0  0  0  0  0  0  0  0  0
   -1.4970   14.0330    1.7300 N   0  0  0  0  0  0  0  0  0  0  0  0
    0.0040   15.4010    0.3940 N   0  0  0  0  0  0  0  0  0  0  0  0
    0.6970   14.1930   -4.6010 C   0  0  0  0  0  0  0  0  0  0  0  0
   -0.1610   14.2540    1.2420 C   0  0  0  0  0  0  0  0  0  0  0  0
    1.1620   12.7530   -4.6780 C   0  0  0  0  0  0  0  0  0  0  0  0
    1.0540   12.0740   -3.3520 C   0  0  0  0  0  0  0  0  0  0  0  0
    0.3230   10.9500   -3.4420 O   0  0  0  0  0  0  0  0  0  0  0  0
    1.5470   12.4310   -2.2970 O   0  0  0  0  0  0  0  0  0  0  0  0
  2  1  1  6
  2  3  1  0
  2  4  1  0
  3  5  1  0
  6  4  1  6
  5  7  1  0
  5  8  2  0
  6  8  1  0
  6  9  1  0
  6 10  1  0
  9 11  1  6
  7 12  2  0
  8 13  1  0
 12 13  1  0
  9 14  1  0
 10 15  1  0
 12 16  1  0
 14 17  1  0
 15 17  1  0
 16 18  1  0
 18 19  1  0
 19 20  1  0
 19 21  2  0
M  END
