mac-x0161-diamond-x1012_0_A
     RDKit          3D

 30 33  0  0  0  0  0  0  0  0999 V2000
   -4.4660   15.6440    1.4270 N   0  0  0  0  0  0  0  0  0  0  0  0
   -3.8300   14.8280    0.4220 C   0  0  2  0  0  0  0  0  0  0  0  0
   -2.4090   14.4250    0.8290 C   0  0  1  0  0  0  0  0  0  0  0  0
   -3.9440   15.5520   -0.8250 N   0  0  0  0  0  0  0  0  0  0  0  0
   -3.2940   14.8730   -1.9440 C   0  0  0  0  0  0  0  0  0  0  0  0
   -1.6430   13.9630   -0.3950 C   0  0  1  0  0  0  0  0  0  0  0  0
   -1.4950   15.4140    1.4050 N   0  0  0  0  0  0  0  0  0  0  0  0
   -1.8900   14.6350   -1.6270 N   0  0  0  0  0  0  0  0  0  0  0  0
   -0.2480   14.1760   -0.0620 N   0  0  0  0  0  0  0  0  0  0  0  0
   -0.2060   14.7700    1.2350 C   0  0  0  0  0  0  0  0  0  0  0  0
   -1.0360   14.0840   -2.6460 C   0  0  1  0  0  0  0  0  0  0  0  0
   -0.8540   12.6460   -2.8160 C   0  0  0  0  0  0  0  0  0  0  0  0
   -1.0800   14.2750   -4.1300 C   0  0  1  0  0  0  0  0  0  0  0  0
   -1.1790   11.9130   -3.9220 C   0  0  0  0  0  0  0  0  0  0  0  0
   -0.2890   11.8420   -1.8490 O   0  0  0  0  0  0  0  0  0  0  0  0
   -1.6790   15.5230   -4.7160 C   0  0  0  0  0  0  0  0  0  0  0  0
    0.3600   13.8420   -4.5470 C   0  0  2  0  0  0  0  0  0  0  0  0
    1.0360   12.8990   -3.5280 C   0  0  0  0  0  0  0  0  0  0  0  0
   -0.2540   10.5520   -2.3800 N   0  0  0  0  0  0  0  0  0  0  0  0
   -0.7890   10.6430   -3.6160 C   0  0  0  0  0  0  0  0  0  0  0  0
    1.2590   15.0290   -4.7900 C   0  0  0  0  0  0  0  0  0  0  0  0
   -0.6840   16.5120   -4.9400 N   0  0  0  0  0  0  0  0  0  0  0  0
   -0.9330    9.6180   -4.4780 O   0  0  0  0  0  0  0  0  0  0  0  0
   -1.1940   17.7580   -4.9830 C   0  0  0  0  0  0  0  0  0  0  0  0
    0.9970   11.6080   -3.9010 O   0  0  0  0  0  0  0  0  0  0  0  0
    1.5590   13.2310   -2.4700 O   0  0  0  0  0  0  0  0  0  0  0  0
    0.6020   16.2880   -4.2990 C   0  0  0  0  0  0  0  0  0  0  0  0
   -1.5700    9.9810   -5.7050 C   0  0  0  0  0  0  0  0  0  0  0  0
   -0.2960   18.7210   -5.1330 N   0  0  0  0  0  0  0  0  0  0  0  0
   -2.3680   18.0190   -4.8900 O   0  0  0  0  0  0  0  0  0  0  0  0
  2  1  1  1
  2  3  1  0
  2  4  1  0
  4  5  1  0
  3  6  1  0
  3  7  1  6
  5  8  1  0
  6  8  1  0
  6  9  1  1
  7 10  1  0
  9 10  1  0
  8 11  1  0
 11 12  1  6
 11 13  1  0
 12 14  2  0
 12 15  1  0
 13 16  1  1
 13 17  1  0
 17 18  1  1
 15 19  1  0
 14 20  1  0
 19 20  2  0
 17 21  1  0
 16 22  1  0
 20 23  1  0
 22 24  1  0
 18 25  1  0
 18 26  2  0
 21 27  1  0
 22 27  1  0
 23 28  1  0
 24 29  1  0
 24 30  2  0
M  END
