mac-x0226-mac-x0472
     RDKit          3D

 32 35  0  0  0  0  0  0  0  0999 V2000
    1.3550   12.3510   -1.9640 O   0  0  0  0  0  0  0  0  0  0  0  0
    0.4050   11.5950   -2.6820 C   0  0  0  0  0  0  0  0  0  0  0  0
    0.5320   10.2440   -2.2880 O   0  0  0  0  0  0  0  0  0  0  0  0
   -0.9780   12.0800   -2.3560 C   0  0  0  0  0  0  0  0  0  0  0  0
    0.6290   11.7130   -4.1510 C   0  0  0  0  0  0  0  0  0  0  0  0
   -1.2270   13.4200   -3.0190 C   0  0  0  0  0  0  0  0  0  0  0  0
    1.4690   12.6030   -4.8560 C   0  0  0  0  0  0  0  0  0  0  0  0
    0.0530   10.9490   -5.1390 C   0  0  0  0  0  0  0  0  0  0  0  0
   -1.1070   14.5170   -1.9810 C   0  0  0  0  0  0  0  0  0  0  0  0
    1.4310   12.4040   -6.1740 N   0  0  0  0  0  0  0  0  0  0  0  0
    0.5600   11.3750   -6.3410 N   0  0  0  0  0  0  0  0  0  0  0  0
   -2.4730   14.9150   -1.5910 N   0  0  0  0  0  0  0  0  0  0  0  0
    0.2630   10.8440   -7.6160 C   0  0  0  0  0  0  0  0  0  0  0  0
   -3.7570   14.6400   -2.6800 S   0  0  0  0  0  0  0  0  0  0  0  0
   -0.9820   10.2430   -7.8330 C   0  0  0  0  0  0  0  0  0  0  0  0
    1.1900   10.9000   -8.6570 C   0  0  0  0  0  0  0  0  0  0  0  0
   -2.8700   14.9440   -0.1880 C   0  0  0  0  0  0  0  0  0  0  0  0
   -4.8610   15.4920   -2.3250 O   0  0  0  0  0  0  0  0  0  0  0  0
   -3.2150   14.6740   -4.0220 O   0  0  0  0  0  0  0  0  0  0  0  0
   -1.2930    9.7090   -9.0830 C   0  0  0  0  0  0  0  0  0  0  0  0
    0.8760   10.3670   -9.9080 C   0  0  0  0  0  0  0  0  0  0  0  0
   -2.1030   14.4990    0.7800 N   0  0  0  0  0  0  0  0  0  0  0  0
   -4.3760   15.5810    0.3060 S   0  0  0  0  0  0  0  0  0  0  0  0
   -4.3250   12.9680   -2.3480 C   0  0  0  0  0  0  0  0  0  0  0  0
   -0.3680    9.7710  -10.1210 C   0  0  0  0  0  0  0  0  0  0  0  0
   -3.8990   15.2060    1.8990 C   0  0  0  0  0  0  0  0  0  0  0  0
   -2.7100   14.6530    2.0030 N   0  0  0  0  0  0  0  0  0  0  0  0
   -3.6440   11.8690   -2.8940 C   0  0  0  0  0  0  0  0  0  0  0  0
   -5.4560   12.7660   -1.5510 C   0  0  0  0  0  0  0  0  0  0  0  0
   -4.1000   10.5760   -2.6420 C   0  0  0  0  0  0  0  0  0  0  0  0
   -5.9060   11.4690   -1.3060 C   0  0  0  0  0  0  0  0  0  0  0  0
   -5.2310   10.3810   -1.8530 C   0  0  0  0  0  0  0  0  0  0  0  0
  2  1  1  0
  2  3  1  0
  2  4  1  0
  2  5  1  0
  4  6  1  0
  5  7  1  0
  5  8  2  0
  6  9  1  0
  7 10  2  0
  8 11  1  0
 10 11  1  0
  9 12  1  0
 11 13  1  0
 14 12  1  0
 13 15  2  0
 13 16  1  0
 12 17  1  0
 14 18  2  0
 14 19  2  0
 15 20  1  0
 16 21  2  0
 17 22  2  0
 17 23  1  0
 14 24  1  0
 20 25  2  0
 21 25  1  0
 23 26  1  0
 22 27  1  0
 26 27  2  0
 24 28  2  0
 24 29  1  0
 28 30  1  0
 29 31  2  0
 30 32  2  0
 31 32  1  0
M  END
