mac-x0441-mac-x0412
     RDKit          3D

 31 34  0  0  0  0  0  0  0  0999 V2000
    0.8180   10.8280   -3.4250 O   0  0  0  0  0  0  0  0  0  0  0  0
    0.7740   12.1700   -3.4730 C   0  0  0  0  0  0  0  0  0  0  0  0
    0.9480   12.7350   -2.3300 N   0  0  0  0  0  0  0  0  0  0  0  0
    0.5300   12.8170   -4.8330 C   0  0  0  0  0  0  0  0  0  0  0  0
    0.9280   14.1760   -2.1150 C   0  0  0  0  0  0  0  0  0  0  0  0
    0.1750   11.9120   -5.9330 N   0  0  0  0  0  0  0  0  0  0  0  0
   -0.3540   14.5610   -1.3720 C   0  0  0  0  0  0  0  0  0  0  0  0
    0.9940   11.8670   -7.0300 N   0  0  0  0  0  0  0  0  0  0  0  0
   -0.8900   11.0650   -6.0590 C   0  0  0  0  0  0  0  0  0  0  0  0
   -1.5650   14.6800   -2.3190 C   0  0  0  0  0  0  0  0  0  0  0  0
    0.4160   10.9640   -7.8710 C   0  0  0  0  0  0  0  0  0  0  0  0
   -0.7590   10.4550   -7.2870 C   0  0  0  0  0  0  0  0  0  0  0  0
   -1.9930   10.8130   -5.0870 C   0  0  0  0  0  0  0  0  0  0  0  0
    0.9010   10.5110   -9.2380 C   0  0  0  0  0  0  0  0  0  0  0  0
   -1.7150    9.4480   -7.8090 C   0  0  0  0  0  0  0  0  0  0  0  0
   -3.0550    9.8640   -5.6960 C   0  0  0  0  0  0  0  0  0  0  0  0
   -2.8930   14.8360   -1.5920 C   0  0  0  0  0  0  0  0  0  0  0  0
    1.5590    9.3260   -9.2070 F   0  0  0  0  0  0  0  0  0  0  0  0
   -0.1460   10.3200  -10.0750 F   0  0  0  0  0  0  0  0  0  0  0  0
    1.6850   11.3700   -9.9100 F   0  0  0  0  0  0  0  0  0  0  0  0
   -2.4680    8.7970   -6.6380 C   0  0  0  0  0  0  0  0  0  0  0  0
   -3.0270   14.6170   -0.2690 C   0  0  0  0  0  0  0  0  0  0  0  0
   -4.0660   15.2210   -2.3720 C   0  0  0  0  0  0  0  0  0  0  0  0
   -4.3220   14.7100    0.3810 C   0  0  0  0  0  0  0  0  0  0  0  0
   -5.3040   15.0310   -1.8800 C   0  0  0  0  0  0  0  0  0  0  0  0
   -5.5080   14.4070   -0.5200 C   0  0  2  0  0  0  0  0  0  0  0  0
   -4.4670   15.0070    1.6710 C   0  0  0  0  0  0  0  0  0  0  0  0
   -6.8770   14.7220    0.1410 C   0  0  0  0  0  0  0  0  0  0  0  0
   -5.8480   15.0000    2.1840 C   0  0  0  0  0  0  0  0  0  0  0  0
   -7.8950   14.8560   -0.5300 O   0  0  0  0  0  0  0  0  0  0  0  0
   -6.9410   14.8560    1.5140 N   0  0  0  0  0  0  0  0  0  0  0  0
  1  2  1  0
  2  3  2  3
  2  4  1  0
  3  5  1  0
  4  6  1  0
  5  7  1  0
  6  8  1  0
  6  9  1  0
  7 10  1  0
  8 11  2  0
  9 12  2  0
 11 12  1  0
  9 13  1  0
 11 14  1  0
 12 15  1  0
 13 16  1  0
 10 17  1  0
 14 18  1  0
 14 19  1  0
 14 20  1  0
 15 21  1  0
 16 21  1  0
 17 22  2  0
 17 23  1  0
 22 24  1  0
 23 25  2  0
 24 26  1  0
 26 25  1  6
 24 27  2  0
 26 28  1  0
 27 29  1  0
 28 30  2  0
 28 31  1  0
 29 31  2  0
M  END
