mac-x0587-diamond-x0969_0_A
     RDKit          3D

 20 21  0  0  0  0  0  0  0  0999 V2000
   -0.0790   16.1050   -4.0890 C   0  0  0  0  0  0  0  0  0  0  0  0
   -0.7550   14.8250   -3.5810 C   0  0  2  0  0  0  0  0  0  0  0  0
   -0.4090   13.5460   -4.8710 S   0  0  0  0  0  0  0  0  0  0  0  0
   -2.2720   15.0600   -3.3420 C   0  0  0  0  0  0  0  0  0  0  0  0
   -0.7280   11.9820   -3.9940 C   0  0  0  0  0  0  0  0  0  0  0  0
   -3.0040   15.2580   -4.3130 O   0  0  0  0  0  0  0  0  0  0  0  0
   -2.7810   15.0470   -2.0220 N   0  0  0  0  0  0  0  0  0  0  0  0
    0.4140   11.5500   -3.1070 C   0  0  0  0  0  0  0  0  0  0  0  0
   -4.0110   15.6090   -1.4580 C   0  0  0  0  0  0  0  0  0  0  0  0
   -2.1750   14.4610   -0.9120 C   0  0  0  0  0  0  0  0  0  0  0  0
    0.5960   10.4260   -2.6900 O   0  0  0  0  0  0  0  0  0  0  0  0
    1.2630   12.5560   -2.7820 O   0  0  0  0  0  0  0  0  0  0  0  0
   -0.9980   14.4120   -0.5930 O   0  0  0  0  0  0  0  0  0  0  0  0
   -4.4950   14.5210   -0.5490 C   0  0  1  0  0  0  0  0  0  0  0  0
   -3.2320   13.9050   -0.1560 N   0  0  0  0  0  0  0  0  0  0  0  0
   -5.4390   14.8820    0.6190 C   0  0  0  0  0  0  0  0  0  0  0  0
   -5.5100   13.7880   -1.3440 C   0  0  0  0  0  0  0  0  0  0  0  0
   -5.0490   15.5020    1.7680 N   0  0  0  0  0  0  0  0  0  0  0  0
   -6.6700   14.5150    0.3940 N   0  0  0  0  0  0  0  0  0  0  0  0
   -6.7100   13.8260   -0.8480 N   0  0  0  0  0  0  0  0  0  0  0  0
  2  1  1  6
  2  3  1  0
  2  4  1  0
  3  5  1  0
  4  6  2  0
  4  7  1  0
  5  8  1  0
  7  9  1  0
  7 10  1  0
  8 11  2  0
  8 12  1  0
 10 13  2  0
 14  9  1  6
 10 15  1  0
 14 15  1  0
 14 16  1  0
 14 17  1  0
 16 18  1  0
 16 19  2  0
 17 20  2  0
 19 20  1  0
M  END
