mac-x0178-diamond-x0837_0_A
     RDKit          3D

 21 22  0  0  0  0  0  0  0  0999 V2000
   -0.1790   18.2250   -6.5110 N   0  0  0  0  0  0  0  0  0  0  0  0
   -1.4770   17.5450   -5.6150 S   0  0  0  0  0  0  0  0  0  0  0  0
   -2.5400   17.1570   -6.6120 O   0  0  0  0  0  0  0  0  0  0  0  0
   -2.0570   18.6090   -4.7310 O   0  0  0  0  0  0  0  0  0  0  0  0
   -0.9850   16.1480   -4.7050 C   0  0  0  0  0  0  0  0  0  0  0  0
    0.3860   15.8600   -4.7010 C   0  0  0  0  0  0  0  0  0  0  0  0
   -2.0810   15.5170   -4.0920 C   0  0  0  0  0  0  0  0  0  0  0  0
   -3.5310   14.3940   -3.0760 I   0  0  0  0  0  0  0  0  0  0  0  0
    0.8810   14.8130   -4.0400 C   0  0  0  0  0  0  0  0  0  0  0  0
   -1.3800   14.4220   -3.4350 C   0  0  0  0  0  0  0  0  0  0  0  0
   -0.0220   14.0800   -3.4000 C   0  0  0  0  0  0  0  0  0  0  0  0
   -4.2640   15.3440   -1.2870 C   0  0  2  0  0  0  0  0  0  0  0  0
    0.4280   12.9130   -2.6540 C   0  0  0  0  0  0  0  0  0  0  0  0
   -3.4490   14.9930   -0.1290 C   0  0  0  0  0  0  0  0  0  0  0  0
   -5.7220   15.1290   -1.1430 C   0  0  0  0  0  0  0  0  0  0  0  0
    1.0080   13.0890   -1.5620 O   0  0  0  0  0  0  0  0  0  0  0  0
    0.2530   11.6300   -3.0950 O   0  0  0  0  0  0  0  0  0  0  0  0
   -3.8810   14.7750    1.0810 C   0  0  0  0  0  0  0  0  0  0  0  0
   -6.1540   14.8530    0.2550 C   0  0  0  0  0  0  0  0  0  0  0  0
   -7.3760   14.6090    0.4230 O   0  0  0  0  0  0  0  0  0  0  0  0
   -5.2680   14.8640    1.3510 N   0  0  0  0  0  0  0  0  0  0  0  0
  2  1  1  0
  2  3  2  0
  2  4  2  0
  2  5  1  0
  5  6  2  0
  5  7  1  0
  7  8  1  0
  6  9  1  0
  7 10  2  0
  9 11  2  0
 10 11  1  0
 12  8  1  6
 11 13  1  0
 12 14  1  0
 12 15  1  0
 13 16  2  0
 13 17  1  0
 14 18  2  0
 15 19  1  0
 19 20  2  0
 18 21  1  0
 19 21  1  0
M  END
