mac-x0213-mac-x0412
     RDKit          3D

 25 28  0  0  0  0  0  0  0  0999 V2000
    0.0650   11.8000   -3.3800 O   0  0  0  0  0  0  0  0  0  0  0  0
    0.2210   13.0060   -2.6490 C   0  0  0  0  0  0  0  0  0  0  0  0
    1.5070   13.0420   -2.0670 O   0  0  0  0  0  0  0  0  0  0  0  0
   -0.8570   13.1350   -1.5810 C   0  0  0  0  0  0  0  0  0  0  0  0
   -0.0060   14.2430   -3.5180 C   0  0  0  0  0  0  0  0  0  0  0  0
   -1.4620   14.5520   -1.6680 C   0  0  0  0  0  0  0  0  0  0  0  0
   -1.1990   14.1690   -4.4750 C   0  0  0  0  0  0  0  0  0  0  0  0
    1.0900   14.9110   -4.3610 C   0  0  0  0  0  0  0  0  0  0  0  0
   -1.1420   15.5990   -4.8880 C   0  0  0  0  0  0  0  0  0  0  0  0
    0.1950   16.0390   -4.8260 C   0  0  0  0  0  0  0  0  0  0  0  0
   -2.8760   14.7210   -1.2190 C   0  0  0  0  0  0  0  0  0  0  0  0
   -2.1710   16.4340   -5.2830 C   0  0  0  0  0  0  0  0  0  0  0  0
    0.5130   17.3400   -5.1630 C   0  0  0  0  0  0  0  0  0  0  0  0
   -3.1870   14.7850    0.0620 C   0  0  0  0  0  0  0  0  0  0  0  0
   -3.9290   14.8050   -2.2410 C   0  0  0  0  0  0  0  0  0  0  0  0
   -1.8450   17.7470   -5.6260 C   0  0  0  0  0  0  0  0  0  0  0  0
   -0.5160   18.1910   -5.5660 C   0  0  0  0  0  0  0  0  0  0  0  0
   -4.5370   14.9050    0.4930 C   0  0  0  0  0  0  0  0  0  0  0  0
   -5.1920   15.1260   -1.9060 C   0  0  0  0  0  0  0  0  0  0  0  0
   -5.5760   15.4210   -0.4760 C   0  0  1  0  0  0  0  0  0  0  0  0
   -4.8330   14.5330    1.7180 C   0  0  0  0  0  0  0  0  0  0  0  0
   -6.9810   14.8960   -0.0320 C   0  0  0  0  0  0  0  0  0  0  0  0
   -6.2330   14.6400    2.1290 C   0  0  0  0  0  0  0  0  0  0  0  0
   -7.8470   14.5890   -0.8380 O   0  0  0  0  0  0  0  0  0  0  0  0
   -7.2330   14.7970    1.3360 N   0  0  0  0  0  0  0  0  0  0  0  0
  2  1  1  0
  2  3  1  0
  2  4  1  0
  2  5  1  0
  4  6  1  0
  5  7  1  0
  5  8  1  0
  7  9  1  0
  8 10  1  0
  9 10  2  0
  6 11  1  0
  9 12  1  0
 10 13  1  0
 11 14  2  0
 11 15  1  0
 12 16  2  0
 13 17  2  0
 16 17  1  0
 14 18  1  0
 15 19  2  0
 18 20  1  0
 20 19  1  6
 18 21  2  0
 20 22  1  0
 21 23  1  0
 22 24  2  0
 22 25  1  0
 23 25  2  0
M  END
