mac-x0396-mac-x0439
     RDKit          3D

 25 27  0  0  0  0  0  0  0  0999 V2000
   -3.2640   15.0440    1.3770 N   0  0  0  0  0  0  0  0  0  0  0  0
   -3.8030   14.9530    0.1140 C   0  0  0  0  0  0  0  0  0  0  0  0
   -2.9860   14.9130   -0.8780 N   0  0  0  0  0  0  0  0  0  0  0  0
   -5.2780   14.8960    0.0070 C   0  0  0  0  0  0  0  0  0  0  0  0
   -3.5260   14.8220   -2.2260 C   0  0  0  0  0  0  0  0  0  0  0  0
   -5.9630   15.1000   -1.1840 C   0  0  0  0  0  0  0  0  0  0  0  0
   -6.0130   14.6190    1.1420 C   0  0  0  0  0  0  0  0  0  0  0  0
   -2.4370   14.2970   -3.1460 C   0  0  0  0  0  0  0  0  0  0  0  0
   -7.3160   15.0300   -1.2730 N   0  0  0  0  0  0  0  0  0  0  0  0
   -7.3960   14.5420    1.0810 C   0  0  0  0  0  0  0  0  0  0  0  0
   -2.8130   14.3970   -4.6280 C   0  0  0  0  0  0  0  0  0  0  0  0
   -7.9970   14.7540   -0.1430 C   0  0  0  0  0  0  0  0  0  0  0  0
   -2.9540   15.8350   -5.1310 C   0  0  0  0  0  0  0  0  0  0  0  0
   -1.6630   16.5770   -5.3200 C   0  0  0  0  0  0  0  0  0  0  0  0
   -0.3530   15.8480   -5.1550 C   0  0  2  0  0  0  0  0  0  0  0  0
   -1.6260   17.8870   -5.6550 C   0  0  0  0  0  0  0  0  0  0  0  0
   -0.0590   14.7580   -4.2040 C   0  0  0  0  0  0  0  0  0  0  0  0
    0.7310   16.7870   -4.7320 C   0  0  0  0  0  0  0  0  0  0  0  0
   -0.3670   18.5880   -5.8370 C   0  0  0  0  0  0  0  0  0  0  0  0
    1.0280   15.0800   -3.5200 C   0  0  0  0  0  0  0  0  0  0  0  0
    1.5140   16.3220   -3.8290 N   0  0  0  0  0  0  0  0  0  0  0  0
    0.8070   18.1010   -5.4020 C   0  0  0  0  0  0  0  0  0  0  0  0
    1.6240   14.1490   -2.5360 C   0  0  0  0  0  0  0  0  0  0  0  0
    2.9690   14.2670   -2.4740 O   0  0  0  0  0  0  0  0  0  0  0  0
    1.0210   13.3400   -1.8530 O   0  0  0  0  0  0  0  0  0  0  0  0
  1  2  1  0
  2  3  2  3
  2  4  1  0
  3  5  1  0
  4  6  2  0
  4  7  1  0
  5  8  1  0
  6  9  1  0
  7 10  2  0
  8 11  1  0
  9 12  2  0
 10 12  1  0
 11 13  1  0
 13 14  1  0
 14 15  1  0
 14 16  2  0
 15 17  1  1
 15 18  1  0
 16 19  1  0
 17 20  2  0
 18 21  2  0
 20 21  1  0
 18 22  1  0
 19 22  2  0
 20 23  1  0
 23 24  1  0
 23 25  2  0
M  END
