mac-x0360-mac-x0572
     RDKit          3D

 24 26  0  0  0  0  0  0  0  0999 V2000
   -6.9970   12.1630    1.6690 Cl  0  0  0  0  0  0  0  0  0  0  0  0
   -5.7830   12.0750    0.4440 C   0  0  0  0  0  0  0  0  0  0  0  0
   -6.0570   11.2410   -0.6280 C   0  0  0  0  0  0  0  0  0  0  0  0
   -4.5580   12.7980    0.5110 C   0  0  0  0  0  0  0  0  0  0  0  0
   -3.5870   12.6650   -0.5360 C   0  0  0  0  0  0  0  0  0  0  0  0
   -5.1200   11.1150   -1.6350 C   0  0  0  0  0  0  0  0  0  0  0  0
   -5.4370   10.0620   -2.9590 Cl  0  0  0  0  0  0  0  0  0  0  0  0
   -1.9020   13.5000   -0.5790 S   0  0  0  0  0  0  0  0  0  0  0  0
   -3.9200   11.8090   -1.5960 C   0  0  0  0  0  0  0  0  0  0  0  0
   -2.0610   14.1280   -2.1190 N   0  0  0  0  0  0  0  0  0  0  0  0
   -2.0650   14.9610    0.2560 N   0  0  0  0  0  0  0  0  0  0  0  0
   -3.3260   15.0690    0.3120 C   0  0  0  0  0  0  0  0  0  0  0  0
   -4.1480   15.1910    1.3140 C   0  0  0  0  0  0  0  0  0  0  0  0
   -3.8000   14.9740   -1.0680 C   0  0  0  0  0  0  0  0  0  0  0  0
   -5.5620   15.1520    1.0250 C   0  0  0  0  0  0  0  0  0  0  0  0
   -5.0530   15.1100   -1.4230 C   0  0  0  0  0  0  0  0  0  0  0  0
   -6.0620   15.4060   -0.3950 C   0  0  1  0  0  0  0  0  0  0  0  0
   -6.3120   14.8460    2.0310 N   0  0  0  0  0  0  0  0  0  0  0  0
   -7.6490   14.7200    1.8670 C   0  0  0  0  0  0  0  0  0  0  0  0
   -7.4240   14.7870   -0.5770 C   0  0  0  0  0  0  0  0  0  0  0  0
   -8.3650   14.6340    3.1930 C   0  0  0  0  0  0  0  0  0  0  0  0
   -7.8570   14.4040   -1.6640 O   0  0  0  0  0  0  0  0  0  0  0  0
   -8.2680   14.6770    0.6700 C   0  0  0  0  0  0  0  0  0  0  0  0
   -9.6340   14.5440    0.5090 O   0  0  0  0  0  0  0  0  0  0  0  0
  1  2  1  0
  2  3  2  0
  2  4  1  0
  4  5  2  0
  3  6  1  0
  6  7  1  0
  5  8  1  0
  5  9  1  0
  6  9  2  0
  8 10  1  0
  8 11  2  3
 11 12  1  0
 12 13  2  0
 12 14  1  0
 13 15  1  0
 14 16  2  0
 15 17  1  0
 17 16  1  6
 15 18  2  0
 18 19  1  0
 17 20  1  0
 19 21  1  0
 20 22  2  0
 19 23  2  0
 20 23  1  0
 23 24  1  0
M  END
