mac-x0387-mac-x0358
     RDKit          3D

 23 25  0  0  0  0  0  0  0  0999 V2000
   -3.7590   15.2900    1.8250 N   0  0  0  0  0  0  0  0  0  0  0  0
   -2.6190   14.9510    1.0910 C   0  0  0  0  0  0  0  0  0  0  0  0
   -1.5010   14.6530    1.7760 N   0  0  0  0  0  0  0  0  0  0  0  0
   -2.6860   14.9410   -0.3010 C   0  0  0  0  0  0  0  0  0  0  0  0
   -1.5250   14.6100   -1.0170 C   0  0  0  0  0  0  0  0  0  0  0  0
   -0.3950   14.3400    1.0580 C   0  0  0  0  0  0  0  0  0  0  0  0
   -3.8640   15.2510   -1.0020 C   0  0  0  0  0  0  0  0  0  0  0  0
   -0.3490   14.3040   -0.3490 C   0  0  0  0  0  0  0  0  0  0  0  0
   -1.5900   14.6020   -2.4120 C   0  0  0  0  0  0  0  0  0  0  0  0
   -3.9010   15.2340   -2.3880 C   0  0  0  0  0  0  0  0  0  0  0  0
    0.8790   13.9560   -1.1670 C   0  0  0  0  0  0  0  0  0  0  0  0
   -2.7600   14.9080   -3.0900 C   0  0  0  0  0  0  0  0  0  0  0  0
    0.8620   12.5460   -1.4730 O   0  0  0  0  0  0  0  0  0  0  0  0
    0.6120   12.0940   -2.7640 C   0  0  0  0  0  0  0  0  0  0  0  0
    0.2130   10.9550   -2.9680 O   0  0  0  0  0  0  0  0  0  0  0  0
    0.8710   13.1000   -3.8870 C   0  0  0  0  0  0  0  0  0  0  0  0
   -0.4150   13.5600   -4.5590 C   0  0  0  0  0  0  0  0  0  0  0  0
   -1.3540   12.6350   -5.0560 C   0  0  0  0  0  0  0  0  0  0  0  0
   -0.7030   14.9310   -4.6940 C   0  0  0  0  0  0  0  0  0  0  0  0
   -1.0820   11.3010   -4.9350 O   0  0  0  0  0  0  0  0  0  0  0  0
   -2.5400   13.0540   -5.6610 C   0  0  0  0  0  0  0  0  0  0  0  0
   -1.8930   15.3520   -5.2980 C   0  0  0  0  0  0  0  0  0  0  0  0
   -2.8120   14.4170   -5.7810 C   0  0  0  0  0  0  0  0  0  0  0  0
  1  2  1  0
  2  3  2  0
  2  4  1  0
  4  5  2  0
  3  6  1  0
  4  7  1  0
  5  8  1  0
  6  8  2  0
  5  9  1  0
  7 10  2  0
  8 11  1  0
  9 12  2  0
 10 12  1  0
 11 13  1  0
 13 14  1  0
 14 15  2  0
 14 16  1  0
 16 17  1  0
 17 18  2  0
 17 19  1  0
 18 20  1  0
 18 21  1  0
 19 22  2  0
 21 23  2  0
 22 23  1  0
M  END
