mac-x0116-mac-x0284
     RDKit          3D

 20 22  0  0  0  0  0  0  0  0999 V2000
   -5.8900   14.6230    0.9970 C   0  0  0  0  0  0  0  0  0  0  0  0
   -4.4750   14.8970    1.1680 N   0  0  0  0  0  0  0  0  0  0  0  0
   -3.4560   14.7890    0.1890 C   0  0  0  0  0  0  0  0  0  0  0  0
   -6.3360   13.2260    1.2740 C   0  0  0  0  0  0  0  0  0  0  0  0
   -6.3410   12.3670    0.2170 O   0  0  0  0  0  0  0  0  0  0  0  0
   -6.7730   12.5750    2.4130 C   0  0  0  0  0  0  0  0  0  0  0  0
   -7.0590   11.2520    2.0320 C   0  0  0  0  0  0  0  0  0  0  0  0
   -6.7810   11.1770    0.6890 C   0  0  0  0  0  0  0  0  0  0  0  0
   -3.6680   14.8020   -1.2440 N   0  0  0  0  0  0  0  0  0  0  0  0
   -2.1890   14.6360    0.6850 C   0  0  0  0  0  0  0  0  0  0  0  0
   -2.5250   14.6900   -1.9540 C   0  0  0  0  0  0  0  0  0  0  0  0
   -1.0760   14.5210   -0.2320 C   0  0  0  0  0  0  0  0  0  0  0  0
   -1.6390   14.5440    1.9220 N   0  0  0  0  0  0  0  0  0  0  0  0
   -2.1330   14.5810   -3.3950 C   0  0  0  0  0  0  0  0  0  0  0  0
   -1.3330   14.6270   -1.4810 N   0  0  0  0  0  0  0  0  0  0  0  0
    0.0240   14.3300    0.3600 N   0  0  0  0  0  0  0  0  0  0  0  0
   -0.3740   14.3440    1.6710 C   0  0  0  0  0  0  0  0  0  0  0  0
   -0.3130   14.6680   -2.4390 O   0  0  0  0  0  0  0  0  0  0  0  0
   -1.4010   13.6720   -3.7340 O   0  0  0  0  0  0  0  0  0  0  0  0
   -2.5050   15.5460   -4.2030 O   0  0  0  0  0  0  0  0  0  0  0  0
  1  2  1  0
  2  3  1  0
  1  4  1  0
  4  5  1  0
  4  6  2  0
  6  7  1  0
  5  8  1  0
  7  8  2  0
  3  9  1  0
  3 10  2  0
  9 11  2  0
 10 12  1  0
 10 13  1  0
 11 14  1  0
 11 15  1  0
 12 15  1  0
 12 16  2  0
 13 17  2  0
 16 17  1  0
 15 18  1  0
 14 19  2  0
 14 20  1  0
M  END
