mac-x0567-diamond-x0722_0_A
     RDKit          3D

 16 17  0  0  0  0  0  0  0  0999 V2000
    0.1880   14.9190    0.1520 N   0  0  0  0  0  0  0  0  0  0  0  0
   -1.1580   14.8600    0.4240 C   0  0  0  0  0  0  0  0  0  0  0  0
   -1.7160   15.0650    1.5950 N   0  0  0  0  0  0  0  0  0  0  0  0
   -2.1560   14.5220   -0.6830 C   0  0  1  0  0  0  0  0  0  0  0  0
   -1.6460   13.0990   -0.9560 C   0  0  0  0  0  0  0  0  0  0  0  0
   -3.0980   14.9090    1.4810 N   0  0  0  0  0  0  0  0  0  0  0  0
   -3.5020   14.7020    0.1190 C   0  0  2  0  0  0  0  0  0  0  0  0
   -2.2690   14.8280   -2.1480 C   0  0  0  0  0  0  0  0  0  0  0  0
   -4.0720   15.7370    2.1720 C   0  0  0  0  0  0  0  0  0  0  0  0
   -4.4560   13.4850    0.2600 C   0  0  0  0  0  0  0  0  0  0  0  0
   -4.5540   15.5100   -0.5260 C   0  0  0  0  0  0  0  0  0  0  0  0
   -3.3830   15.3880   -2.6410 C   0  0  0  0  0  0  0  0  0  0  0  0
   -5.9090   13.6680   -0.1790 C   0  0  0  0  0  0  0  0  0  0  0  0
   -4.4950   15.7670   -1.8040 C   0  0  0  0  0  0  0  0  0  0  0  0
   -6.4160   14.6700   -0.7040 O   0  0  0  0  0  0  0  0  0  0  0  0
   -6.6780   12.5830    0.0530 N   0  0  0  0  0  0  0  0  0  0  0  0
  1  2  1  0
  2  3  2  0
  2  4  1  0
  4  5  1  6
  3  6  1  0
  4  7  1  0
  6  7  1  0
  4  8  1  0
  6  9  1  0
  7 10  1  1
  7 11  1  0
  8 12  2  0
 10 13  1  0
 11 14  2  0
 12 14  1  0
 13 15  2  0
 13 16  1  0
M  END
