mac-x0572-mac-x0283
     RDKit          3D

 13 14  0  0  0  0  0  0  0  0999 V2000
   -7.9240   14.5260    3.1870 C   0  0  0  0  0  0  0  0  0  0  0  0
   -7.1960   14.6360    1.8670 C   0  0  0  0  0  0  0  0  0  0  0  0
   -5.8380   14.7350    2.0340 N   0  0  0  0  0  0  0  0  0  0  0  0
   -7.8100   14.6360    0.6670 C   0  0  0  0  0  0  0  0  0  0  0  0
   -9.1750   14.5310    0.4740 O   0  0  0  0  0  0  0  0  0  0  0  0
   -6.9350   14.7640   -0.5580 C   0  0  0  0  0  0  0  0  0  0  0  0
   -5.0640   15.0730    1.0520 C   0  0  0  0  0  0  0  0  0  0  0  0
   -7.3340   14.3760   -1.6530 O   0  0  0  0  0  0  0  0  0  0  0  0
   -5.5660   15.3970   -0.3430 C   0  0  1  0  0  0  0  0  0  0  0  0
   -3.6160   15.1300    1.3250 C   0  0  0  0  0  0  0  0  0  0  0  0
   -2.7730   15.0890    0.2940 C   0  0  0  0  0  0  0  0  0  0  0  0
   -4.5260   15.1240   -1.3880 C   0  0  0  0  0  0  0  0  0  0  0  0
   -3.2280   14.9890   -1.0740 C   0  0  0  0  0  0  0  0  0  0  0  0
  1  2  1  0
  2  3  1  0
  2  4  2  0
  4  5  1  0
  4  6  1  0
  3  7  2  0
  6  8  2  0
  6  9  1  0
  7  9  1  0
  7 10  1  0
 10 11  2  0
  9 12  1  6
 11 13  1  0
 12 13  2  0
M  END
