mac-x0338-mac-x0138
     RDKit          3D

 16 18  0  0  0  0  0  0  0  0999 V2000
   -4.2280   14.4400    1.5320 N   0  0  0  0  0  0  0  0  0  0  0  0
   -5.2910   14.9290    0.8650 C   0  0  0  0  0  0  0  0  0  0  0  0
   -6.4590   14.8490    1.1950 O   0  0  0  0  0  0  0  0  0  0  0  0
   -3.2130   14.0090    0.6450 C   0  0  1  0  0  0  0  0  0  0  0  0
   -4.7060   15.5700   -0.3430 C   0  0  1  0  0  0  0  0  0  0  0  0
   -3.2280   15.0330   -0.4980 C   0  0  2  0  0  0  0  0  0  0  0  0
   -2.0440   14.0980    1.4570 N   0  0  0  0  0  0  0  0  0  0  0  0
   -3.0990   14.7650   -2.0300 C   0  0  1  0  0  0  0  0  0  0  0  0
   -5.5030   15.5490   -1.6120 C   0  0  0  0  0  0  0  0  0  0  0  0
   -0.8140   14.0630    0.7800 C   0  0  2  0  0  0  0  0  0  0  0  0
   -1.9870   15.8840   -0.1770 C   0  0  0  0  0  0  0  0  0  0  0  0
   -1.6960   14.4670   -2.5860 C   0  0  0  0  0  0  0  0  0  0  0  0
    0.1060   14.2330    1.8350 N   0  0  0  0  0  0  0  0  0  0  0  0
   -4.1640   13.7510   -2.4950 C   0  0  0  0  0  0  0  0  0  0  0  0
   -5.5100   14.1950   -2.1550 N   0  0  0  0  0  0  0  0  0  0  0  0
   -0.7400   15.1390   -0.1340 N   0  0  0  0  0  0  0  0  0  0  0  0
  1  2  1  0
  2  3  2  0
  4  1  1  1
  2  5  1  0
  4  6  1  0
  5  6  1  0
  4  7  1  0
  6  8  1  0
  5  9  1  6
  7 10  1  0
  6 11  1  1
  8 12  1  1
 10 13  1  1
  8 14  1  0
  9 15  1  0
 14 15  1  0
 10 16  1  0
 11 16  1  0
M  END
