mac-x0555-mac-x0263
     RDKit          3D

 15 16  0  0  0  0  0  0  0  0999 V2000
   -8.2040   14.5810    2.4020 N   0  0  0  0  0  0  0  0  0  0  0  0
   -9.6170   14.8660    2.0140 C   0  0  0  0  0  0  0  0  0  0  0  0
  -10.5540   15.3620    3.1160 C   0  0  0  0  0  0  0  0  0  0  0  0
   -7.3260   14.6810    1.3130 C   0  0  0  0  0  0  0  0  0  0  0  0
   -5.9290   14.8220    1.3160 C   0  0  0  0  0  0  0  0  0  0  0  0
   -7.9070   14.6550    0.0550 C   0  0  0  0  0  0  0  0  0  0  0  0
  -11.7980   14.8330    3.0430 O   0  0  0  0  0  0  0  0  0  0  0  0
  -10.3000   16.1600    3.9960 O   0  0  0  0  0  0  0  0  0  0  0  0
   -5.2130   14.9340    0.1040 C   0  0  0  0  0  0  0  0  0  0  0  0
   -7.2680   14.7580   -1.1210 N   0  0  0  0  0  0  0  0  0  0  0  0
   -5.9470   14.8990   -1.0950 C   0  0  0  0  0  0  0  0  0  0  0  0
   -3.8170   15.0780    0.0590 C   0  0  0  0  0  0  0  0  0  0  0  0
   -5.2730   15.0170   -2.2970 C   0  0  0  0  0  0  0  0  0  0  0  0
   -3.1660   15.1870   -1.1690 C   0  0  0  0  0  0  0  0  0  0  0  0
   -3.8940   15.1620   -2.3510 C   0  0  0  0  0  0  0  0  0  0  0  0
  1  2  1  0
  2  3  1  0
  1  4  1  0
  4  5  2  0
  4  6  1  0
  3  7  1  0
  3  8  2  0
  5  9  1  0
  6 10  2  0
  9 11  2  0
 10 11  1  0
  9 12  1  0
 11 13  1  0
 12 14  2  0
 13 15  2  0
 14 15  1  0
M  END
