mac-x0115-mac-x0453
     RDKit          3D

 20 21  0  0  0  0  0  0  0  0999 V2000
   -1.4250   18.6150   -5.1980 C   0  0  0  0  0  0  0  0  0  0  0  0
   -0.4410   17.6410   -5.8150 C   0  0  0  0  0  0  0  0  0  0  0  0
    0.9940   18.0460   -5.5110 C   0  0  0  0  0  0  0  0  0  0  0  0
   -0.6530   16.3250   -5.2960 O   0  0  0  0  0  0  0  0  0  0  0  0
    0.4090   15.7220   -4.5490 C   0  0  0  0  0  0  0  0  0  0  0  0
   -0.0640   14.4420   -3.8320 C   0  0  0  0  0  0  0  0  0  0  0  0
   -0.2160   14.5840   -2.3640 N   0  0  0  0  0  0  0  0  0  0  0  0
    0.8500   14.4100   -1.4720 C   0  0  0  0  0  0  0  0  0  0  0  0
   -1.3660   15.2660   -1.7660 C   0  0  2  0  0  0  0  0  0  0  0  0
    2.4320   14.0380   -1.8820 S   0  0  0  0  0  0  0  0  0  0  0  0
    0.5280   14.5660   -0.1160 N   0  0  0  0  0  0  0  0  0  0  0  0
   -1.8710   14.5100   -0.5070 C   0  0  1  0  0  0  0  0  0  0  0  0
   -2.6680   15.4940   -2.4910 C   0  0  0  0  0  0  0  0  0  0  0  0
   -0.7460   14.6460    0.4890 C   0  0  0  0  0  0  0  0  0  0  0  0
   -3.2000   15.1530   -0.3060 N   0  0  0  0  0  0  0  0  0  0  0  0
   -3.6730   15.4190   -1.5900 C   0  0  0  0  0  0  0  0  0  0  0  0
   -0.9020   14.7960    1.7020 O   0  0  0  0  0  0  0  0  0  0  0  0
   -4.0380   14.9740    0.9270 C   0  0  0  0  0  0  0  0  0  0  0  0
   -5.3320   14.1290    0.7020 C   0  0  0  0  0  0  0  0  0  0  0  0
   -6.3390   14.3110    1.7720 N   0  0  0  0  0  0  0  0  0  0  0  0
  1  2  1  0
  2  3  1  0
  2  4  1  0
  4  5  1  0
  5  6  1  0
  6  7  1  0
  7  8  1  0
  7  9  1  0
  8 10  2  0
  8 11  1  0
  9 12  1  0
  9 13  1  6
 11 14  1  0
 12 14  1  1
 12 15  1  0
 13 16  2  0
 15 16  1  0
 14 17  2  0
 15 18  1  0
 18 19  1  0
 19 20  1  0
M  END
