mac-x0188-diamond-x0766_0_A
     RDKit          3D

 16 17  0  0  0  0  0  0  0  0999 V2000
    1.1360   12.9210   -5.2820 C   0  0  0  0  0  0  0  0  0  0  0  0
   -0.0810   13.4440   -4.6270 C   0  0  0  0  0  0  0  0  0  0  0  0
   -1.0820   13.8420   -5.4480 O   0  0  0  0  0  0  0  0  0  0  0  0
   -0.4470   13.6270   -3.3110 C   0  0  0  0  0  0  0  0  0  0  0  0
    0.4010   13.2910   -2.1570 C   0  0  0  0  0  0  0  0  0  0  0  0
   -2.1330   14.3070   -4.6930 N   0  0  0  0  0  0  0  0  0  0  0  0
   -1.7710   14.1930   -3.4020 C   0  0  0  0  0  0  0  0  0  0  0  0
    1.3120   14.3140   -1.8090 O   0  0  0  0  0  0  0  0  0  0  0  0
   -0.2580   12.9640   -0.9730 O   0  0  0  0  0  0  0  0  0  0  0  0
    1.1390   12.1310   -2.4480 O   0  0  0  0  0  0  0  0  0  0  0  0
   -2.7110   14.6340   -2.3660 C   0  0  0  0  0  0  0  0  0  0  0  0
   -3.9840   15.0780   -2.7470 C   0  0  0  0  0  0  0  0  0  0  0  0
   -2.3770   14.6320   -1.0020 C   0  0  0  0  0  0  0  0  0  0  0  0
   -4.9030   15.5110   -1.7870 C   0  0  0  0  0  0  0  0  0  0  0  0
   -3.3010   15.0660   -0.0460 C   0  0  0  0  0  0  0  0  0  0  0  0
   -4.5610   15.5060   -0.4400 C   0  0  0  0  0  0  0  0  0  0  0  0
  1  2  1  0
  2  3  1  0
  2  4  2  0
  4  5  1  0
  3  6  1  0
  4  7  1  0
  6  7  2  0
  5  8  1  0
  5  9  1  0
  5 10  1  0
  7 11  1  0
 11 12  2  0
 11 13  1  0
 12 14  1  0
 13 15  2  0
 14 16  2  0
 15 16  1  0
M  END
