mac-x0396-diamond-x0910_0_A
     RDKit          3D

 14 15  0  0  0  0  0  0  0  0999 V2000
   -3.4530   15.2280    1.5830 N   0  0  0  0  0  0  0  0  0  0  0  0
   -3.8150   14.8960    0.2970 C   0  0  0  0  0  0  0  0  0  0  0  0
   -3.0140   14.6340   -0.6820 N   0  0  0  0  0  0  0  0  0  0  0  0
   -5.2820   14.8320    0.0850 C   0  0  0  0  0  0  0  0  0  0  0  0
   -5.9030   15.0640   -1.1330 C   0  0  0  0  0  0  0  0  0  0  0  0
   -6.0810   14.5180    1.1820 C   0  0  0  0  0  0  0  0  0  0  0  0
   -1.6940   14.7040   -0.2840 C   0  0  0  0  0  0  0  0  0  0  0  0
   -7.2490   14.9950   -1.3010 N   0  0  0  0  0  0  0  0  0  0  0  0
   -7.4560   14.4430    1.0380 C   0  0  0  0  0  0  0  0  0  0  0  0
   -1.4870   14.7310    1.0290 N   0  0  0  0  0  0  0  0  0  0  0  0
   -0.5560   14.7520   -1.0440 N   0  0  0  0  0  0  0  0  0  0  0  0
   -7.9880   14.6880   -0.2140 C   0  0  0  0  0  0  0  0  0  0  0  0
   -0.1660   14.7990    1.1030 N   0  0  0  0  0  0  0  0  0  0  0  0
    0.3820   14.8120   -0.1330 C   0  0  0  0  0  0  0  0  0  0  0  0
  1  2  1  0
  2  3  2  3
  2  4  1  0
  4  5  2  0
  4  6  1  0
  3  7  1  0
  5  8  1  0
  6  9  2  0
  7 10  2  0
  7 11  1  0
  8 12  2  0
  9 12  1  0
 10 13  1  0
 11 14  2  0
 13 14  1  0
M  END
