mac-x0361-mac-x0360
     RDKit          3D

 21 22  0  0  0  0  0  0  0  0999 V2000
   -7.5160   14.7950    1.4540 N   0  0  0  0  0  0  0  0  0  0  0  0
   -7.6090   15.0150    0.0990 C   0  0  0  0  0  0  0  0  0  0  0  0
   -8.6820   15.1220   -0.4490 O   0  0  0  0  0  0  0  0  0  0  0  0
   -6.3380   15.0830   -0.6260 C   0  0  0  0  0  0  0  0  0  0  0  0
   -5.2130   15.2430    0.1350 C   0  0  0  0  0  0  0  0  0  0  0  0
   -6.2740   14.9720   -2.0320 C   0  0  0  0  0  0  0  0  0  0  0  0
   -4.0250   15.2610   -0.4730 C   0  0  0  0  0  0  0  0  0  0  0  0
   -5.0280   14.9880   -2.6630 C   0  0  0  0  0  0  0  0  0  0  0  0
   -3.9480   15.1160   -1.8260 C   0  0  0  0  0  0  0  0  0  0  0  0
   -2.7110   15.0800   -2.1460 O   0  0  0  0  0  0  0  0  0  0  0  0
   -2.4510   14.1210   -0.8170 S   0  0  0  0  0  0  0  0  0  0  0  0
   -1.3530   13.3030   -1.1050 O   0  0  0  0  0  0  0  0  0  0  0  0
   -2.4320   14.9220    0.4020 O   0  0  0  0  0  0  0  0  0  0  0  0
   -3.8830   12.9740   -0.6690 C   0  0  0  0  0  0  0  0  0  0  0  0
   -4.0330   12.0090   -1.6690 C   0  0  0  0  0  0  0  0  0  0  0  0
   -4.8360   13.0050    0.4020 C   0  0  0  0  0  0  0  0  0  0  0  0
   -5.0900   11.1010   -1.6210 C   0  0  0  0  0  0  0  0  0  0  0  0
   -5.9020   12.0700    0.4160 C   0  0  0  0  0  0  0  0  0  0  0  0
   -7.0860   12.0460    1.6720 Cl  0  0  0  0  0  0  0  0  0  0  0  0
   -5.2380    9.9170   -2.8570 Cl  0  0  0  0  0  0  0  0  0  0  0  0
   -6.0230   11.1280   -0.5930 C   0  0  0  0  0  0  0  0  0  0  0  0
  1  2  1  0
  2  3  2  0
  2  4  1  0
  4  5  2  0
  4  6  1  0
  5  7  1  0
  6  8  2  0
  7  9  2  0
  8  9  1  0
  9 10  1  0
 11 10  1  0
 11 12  2  0
 11 13  2  0
 11 14  1  0
 14 15  2  0
 14 16  1  0
 15 17  1  0
 16 18  2  0
 18 19  1  0
 17 20  1  0
 17 21  2  0
 18 21  1  0
M  END
