mac-x0263-mac-x0576
     RDKit          3D

 22 24  0  0  0  0  0  0  0  0999 V2000
  -11.5490   14.2860    2.5150 O   0  0  0  0  0  0  0  0  0  0  0  0
  -10.8050   15.3730    2.7890 C   0  0  0  0  0  0  0  0  0  0  0  0
  -11.2240   16.1990    3.5840 O   0  0  0  0  0  0  0  0  0  0  0  0
   -9.4970   15.4740    2.0590 C   0  0  0  0  0  0  0  0  0  0  0  0
   -8.8770   14.1710    1.5590 C   0  0  0  0  0  0  0  0  0  0  0  0
   -7.6040   14.5020    0.8720 C   0  0  0  0  0  0  0  0  0  0  0  0
   -7.4450   14.4840   -0.5000 N   0  0  0  0  0  0  0  0  0  0  0  0
   -6.4930   14.8640    1.4720 N   0  0  0  0  0  0  0  0  0  0  0  0
   -6.1610   14.8680   -0.7470 C   0  0  0  0  0  0  0  0  0  0  0  0
   -5.5970   15.1090    0.4650 C   0  0  0  0  0  0  0  0  0  0  0  0
   -5.5580   14.9890   -2.0000 C   0  0  0  0  0  0  0  0  0  0  0  0
   -4.2270   15.5700    0.5370 C   0  0  0  0  0  0  0  0  0  0  0  0
   -3.8680   16.2680    1.4510 O   0  0  0  0  0  0  0  0  0  0  0  0
   -4.2130   15.0620   -1.9540 C   0  0  0  0  0  0  0  0  0  0  0  0
   -3.3730   15.0540   -0.6480 C   0  0  1  0  0  0  0  0  0  0  0  0
   -2.0380   15.6830   -1.0750 C   0  0  0  0  0  0  0  0  0  0  0  0
   -2.9280   13.6970   -0.1370 C   0  0  0  0  0  0  0  0  0  0  0  0
   -1.8490   16.1320   -2.2020 O   0  0  0  0  0  0  0  0  0  0  0  0
   -0.9840   15.6470   -0.1990 N   0  0  0  0  0  0  0  0  0  0  0  0
   -1.8580   13.8550    0.8400 N   0  0  0  0  0  0  0  0  0  0  0  0
   -0.6730   14.4000    0.3370 C   0  0  2  0  0  0  0  0  0  0  0  0
    0.1060   14.6540    1.4730 N   0  0  0  0  0  0  0  0  0  0  0  0
  1  2  1  0
  2  3  2  0
  2  4  1  0
  4  5  1  0
  5  6  1  0
  6  7  1  0
  6  8  2  0
  7  9  1  0
  8 10  1  0
  9 10  2  0
  9 11  1  0
 10 12  1  0
 12 13  2  0
 11 14  2  0
 15 12  1  0
 15 14  1  6
 15 16  1  0
 15 17  1  0
 16 18  2  0
 16 19  1  0
 17 20  1  0
 19 21  1  0
 20 21  1  0
 21 22  1  1
M  END
