mac-x0417-diamond-x0805_0_A
     RDKit          3D

 27 30  0  0  0  0  0  0  0  0999 V2000
    0.2280   12.4800   -1.8000 O   0  0  0  0  0  0  0  0  0  0  0  0
    0.5570   12.1850   -3.1590 C   0  0  0  0  0  0  0  0  0  0  0  0
    1.9200   11.8830   -3.1220 O   0  0  0  0  0  0  0  0  0  0  0  0
   -0.1440   11.0080   -3.7570 C   0  0  0  0  0  0  0  0  0  0  0  0
    0.4090   13.3170   -4.1450 C   0  0  2  0  0  0  0  0  0  0  0  0
   -0.1260   10.8710   -5.2430 C   0  0  0  0  0  0  0  0  0  0  0  0
    1.7620   13.6450   -4.7800 C   0  0  0  0  0  0  0  0  0  0  0  0
   -0.1950   14.5270   -3.4640 C   0  0  2  0  0  0  0  0  0  0  0  0
    0.7800   11.4410   -6.0750 N   0  0  0  0  0  0  0  0  0  0  0  0
   -1.0470   10.1230   -5.9470 C   0  0  0  0  0  0  0  0  0  0  0  0
   -1.6030   14.2840   -2.9280 C   0  0  0  0  0  0  0  0  0  0  0  0
    2.2370   14.8550   -4.2040 O   0  0  0  0  0  0  0  0  0  0  0  0
   -0.0610   15.7520   -4.3450 C   0  0  0  0  0  0  0  0  0  0  0  0
    0.4280   11.0140   -7.3490 O   0  0  0  0  0  0  0  0  0  0  0  0
   -0.6730   10.2220   -7.2600 C   0  0  0  0  0  0  0  0  0  0  0  0
   -2.1580    9.3690   -5.5880 C   0  0  0  0  0  0  0  0  0  0  0  0
   -2.6280   13.5600   -3.5700 C   0  0  0  0  0  0  0  0  0  0  0  0
   -1.8620   14.8320   -1.6890 C   0  0  0  0  0  0  0  0  0  0  0  0
    1.4120   15.9850   -4.5430 C   0  0  0  0  0  0  0  0  0  0  0  0
   -1.3490    9.5910   -8.2950 C   0  0  0  0  0  0  0  0  0  0  0  0
   -2.8660    8.7250   -6.5920 C   0  0  0  0  0  0  0  0  0  0  0  0
   -3.0810   14.7150   -1.0590 C   0  0  0  0  0  0  0  0  0  0  0  0
   -3.8760   13.4220   -2.9410 C   0  0  0  0  0  0  0  0  0  0  0  0
   -3.3250   15.2810    0.1680 O   0  0  0  0  0  0  0  0  0  0  0  0
   -2.4670    8.8320   -7.9220 C   0  0  0  0  0  0  0  0  0  0  0  0
   -4.1010   14.0020   -1.6870 C   0  0  0  0  0  0  0  0  0  0  0  0
   -4.6070   15.1390    0.7530 C   0  0  0  0  0  0  0  0  0  0  0  0
  2  1  1  0
  2  3  1  0
  2  4  1  0
  5  2  1  1
  4  6  1  0
  5  7  1  0
  5  8  1  0
  6  9  2  0
  6 10  1  0
  8 11  1  6
  7 12  1  0
  8 13  1  0
  9 14  1  0
 10 15  2  0
 14 15  1  0
 10 16  1  0
 11 17  2  0
 11 18  1  0
 12 19  1  0
 13 19  1  0
 15 20  1  0
 16 21  2  0
 18 22  2  0
 17 23  1  0
 22 24  1  0
 20 25  2  0
 21 25  1  0
 22 26  1  0
 23 26  2  0
 24 27  1  0
M  END
