mac-x0472-mac-x0148
     RDKit          3D

 28 32  0  0  0  0  0  0  0  0999 V2000
   -5.0780   14.8890   -1.7610 O   0  0  0  0  0  0  0  0  0  0  0  0
   -4.0890   13.9540   -2.2600 S   0  0  0  0  0  0  0  0  0  0  0  0
   -3.4860   14.0950   -3.5670 O   0  0  0  0  0  0  0  0  0  0  0  0
   -3.0130   13.5480   -1.0870 N   0  0  0  0  0  0  0  0  0  0  0  0
   -4.6670   12.3240   -2.1350 C   0  0  0  0  0  0  0  0  0  0  0  0
   -2.2680   14.5270   -0.4620 C   0  0  2  0  0  0  0  0  0  0  0  0
   -3.8300   11.2960   -2.5780 C   0  0  0  0  0  0  0  0  0  0  0  0
   -5.9160   12.0840   -1.5960 C   0  0  0  0  0  0  0  0  0  0  0  0
   -1.9030   14.2130    0.9360 N   0  0  0  0  0  0  0  0  0  0  0  0
   -3.6230   15.7200   -0.1130 S   0  0  0  0  0  0  0  0  0  0  0  0
   -4.2660    9.9880   -2.4760 C   0  0  0  0  0  0  0  0  0  0  0  0
   -6.3450   10.7700   -1.4950 C   0  0  0  0  0  0  0  0  0  0  0  0
   -0.8780   14.7570   -1.2000 C   0  0  0  0  0  0  0  0  0  0  0  0
   -3.8470   14.9510    1.4380 C   0  0  0  0  0  0  0  0  0  0  0  0
   -2.8950   14.1990    1.8480 N   0  0  0  0  0  0  0  0  0  0  0  0
   -5.5200    9.7250   -1.9360 C   0  0  0  0  0  0  0  0  0  0  0  0
   -0.6130   14.5820   -2.5930 N   0  0  0  0  0  0  0  0  0  0  0  0
    0.1990   15.0460   -0.5380 N   0  0  0  0  0  0  0  0  0  0  0  0
   -0.8610   14.7730    1.5350 N   0  0  0  0  0  0  0  0  0  0  0  0
   -1.7390   14.4900   -3.5830 C   0  0  1  0  0  0  0  0  0  0  0  0
    0.5700   13.7130   -2.8450 C   0  0  0  0  0  0  0  0  0  0  0  0
    0.1150   15.1630    0.7980 C   0  0  0  0  0  0  0  0  0  0  0  0
   -1.9460   15.6510   -4.5500 C   0  0  0  0  0  0  0  0  0  0  0  0
   -1.7760   13.2460   -4.4970 C   0  0  1  0  0  0  0  0  0  0  0  0
    0.1970   12.3630   -3.4270 C   0  0  0  0  0  0  0  0  0  0  0  0
   -2.4480   13.7230   -5.7850 C   0  0  0  0  0  0  0  0  0  0  0  0
   -2.6730   15.1420   -5.6900 O   0  0  0  0  0  0  0  0  0  0  0  0
   -0.4140   12.6220   -4.7750 C   0  0  0  0  0  0  0  0  0  0  0  0
  1  2  2  0
  2  3  2  0
  2  4  1  0
  2  5  1  0
  6  4  1  6
  5  7  2  0
  5  8  1  0
  6  9  1  0
  6 10  1  0
  7 11  1  0
  8 12  2  0
  6 13  1  0
 10 14  1  0
  9 15  1  0
 14 15  2  0
 11 16  2  0
 12 16  1  0
 13 17  1  0
 13 18  2  0
  9 19  1  0
 17 20  1  0
 17 21  1  0
 18 22  1  0
 19 22  2  0
 20 23  1  6
 20 24  1  0
 21 25  1  0
 24 26  1  6
 23 27  1  0
 26 27  1  0
 24 28  1  0
 25 28  1  0
M  END
