mac-x0373-mac-x0190
     RDKit          3D

 22 24  0  0  0  0  0  0  0  0999 V2000
    0.0820   13.1260   -1.0210 O   0  0  0  0  0  0  0  0  0  0  0  0
    0.0650   14.2020   -1.8670 C   0  0  0  0  0  0  0  0  0  0  0  0
    1.0800   14.8600   -2.0280 O   0  0  0  0  0  0  0  0  0  0  0  0
   -1.2880   14.4420   -2.5270 C   0  0  1  0  0  0  0  0  0  0  0  0
   -1.7590   13.2120   -3.3140 C   0  0  0  0  0  0  0  0  0  0  0  0
   -2.2600   15.1990   -1.5400 C   0  0  1  0  0  0  0  0  0  0  0  0
   -1.1520   12.9800   -4.5700 C   0  0  0  0  0  0  0  0  0  0  0  0
   -2.7330   12.3050   -2.8730 C   0  0  0  0  0  0  0  0  0  0  0  0
   -3.6380   15.6410   -2.0070 C   0  0  0  0  0  0  0  0  0  0  0  0
   -2.2950   14.6280   -0.1310 C   0  0  0  0  0  0  0  0  0  0  0  0
   -1.5050   11.8810   -5.3560 C   0  0  0  0  0  0  0  0  0  0  0  0
   -3.0840   11.2020   -3.6640 C   0  0  0  0  0  0  0  0  0  0  0  0
   -4.7840   15.4070   -1.3200 C   0  0  0  0  0  0  0  0  0  0  0  0
   -3.4370   14.3810    0.5440 C   0  0  0  0  0  0  0  0  0  0  0  0
   -2.4730   10.9910   -4.9000 C   0  0  0  0  0  0  0  0  0  0  0  0
   -4.8270   14.6210   -0.0250 C   0  0  2  0  0  0  0  0  0  0  0  0
   -5.5340   13.3060   -0.3500 C   0  0  0  0  0  0  0  0  0  0  0  0
   -5.7910   15.0760    1.0060 N   0  0  0  0  0  0  0  0  0  0  0  0
   -7.1540   14.6640    0.5740 C   0  0  1  0  0  0  0  0  0  0  0  0
   -6.9580   13.6840   -0.4790 N   0  0  0  0  0  0  0  0  0  0  0  0
   -8.0160   14.1290    1.7450 C   0  0  0  0  0  0  0  0  0  0  0  0
   -9.0830   15.0300    2.0700 O   0  0  0  0  0  0  0  0  0  0  0  0
  1  2  1  0
  2  3  2  0
  4  2  1  1
  4  5  1  0
  4  6  1  0
  5  7  2  0
  5  8  1  0
  6  9  1  6
  6 10  1  0
  7 11  1  0
  8 12  2  0
  9 13  2  0
 10 14  2  0
 11 15  2  0
 12 15  1  0
 16 13  1  6
 14 16  1  0
 16 17  1  0
 16 18  1  0
 18 19  1  0
 17 20  1  0
 19 20  1  0
 19 21  1  1
 21 22  1  0
M  END
