mac-x0124-mac-x0441
     RDKit          3D

 29 32  0  0  0  0  0  0  0  0999 V2000
    0.5490   14.2860   -2.5480 C   0  0  0  0  0  0  0  0  0  0  0  0
   -0.7670   14.4220   -1.9680 N   0  0  0  0  0  0  0  0  0  0  0  0
   -1.9340   14.3490   -2.6120 C   0  0  0  0  0  0  0  0  0  0  0  0
   -0.9680   14.6130   -0.6880 C   0  0  0  0  0  0  0  0  0  0  0  0
   -1.7350   14.0170   -4.0080 C   0  0  0  0  0  0  0  0  0  0  0  0
   -2.9740   14.5770   -1.7120 C   0  0  0  0  0  0  0  0  0  0  0  0
   -2.3270   14.7210   -0.4370 C   0  0  0  0  0  0  0  0  0  0  0  0
    0.0520   14.6600    0.1300 N   0  0  0  0  0  0  0  0  0  0  0  0
   -0.9900   12.8110   -3.5050 N   0  0  0  0  0  0  0  0  0  0  0  0
   -2.6520   14.9200    0.9120 C   0  0  0  0  0  0  0  0  0  0  0  0
   -0.3680   14.8110    1.3530 C   0  0  0  0  0  0  0  0  0  0  0  0
   -3.9380   15.0790    1.4090 N   0  0  0  0  0  0  0  0  0  0  0  0
    0.0580   12.2480   -3.9630 C   0  0  0  0  0  0  0  0  0  0  0  0
   -1.6320   14.9450    1.7880 N   0  0  0  0  0  0  0  0  0  0  0  0
    0.6090   11.1700   -3.3550 O   0  0  0  0  0  0  0  0  0  0  0  0
    0.7140   12.7180   -5.1910 C   0  0  0  0  0  0  0  0  0  0  0  0
    0.3580   11.7610   -6.1930 N   0  0  0  0  0  0  0  0  0  0  0  0
    1.0930   11.7340   -7.3120 N   0  0  0  0  0  0  0  0  0  0  0  0
   -0.6530   10.8390   -6.1800 C   0  0  0  0  0  0  0  0  0  0  0  0
    0.5310   10.7590   -8.0510 C   0  0  0  0  0  0  0  0  0  0  0  0
   -0.5580   10.1750   -7.3750 C   0  0  0  0  0  0  0  0  0  0  0  0
   -1.6660   10.5740   -5.1240 C   0  0  0  0  0  0  0  0  0  0  0  0
    0.9900   10.3450   -9.4190 C   0  0  0  0  0  0  0  0  0  0  0  0
   -1.4700    9.0750   -7.7850 C   0  0  0  0  0  0  0  0  0  0  0  0
   -2.8160    9.7390   -5.7220 C   0  0  0  0  0  0  0  0  0  0  0  0
    1.7010    9.1880   -9.3840 F   0  0  0  0  0  0  0  0  0  0  0  0
   -0.0410   10.1360  -10.2680 F   0  0  0  0  0  0  0  0  0  0  0  0
    1.7470   11.2740  -10.0370 F   0  0  0  0  0  0  0  0  0  0  0  0
   -2.3020    8.5750   -6.5910 C   0  0  0  0  0  0  0  0  0  0  0  0
  1  2  1  0
  2  3  1  0
  2  4  1  0
  3  5  1  0
  3  6  2  0
  4  7  2  0
  6  7  1  0
  4  8  1  0
  5  9  1  0
  7 10  1  0
  8 11  2  0
 10 12  1  0
  9 13  2  3
 10 14  2  0
 11 14  1  0
 13 15  1  0
 13 16  1  0
 16 17  1  0
 17 18  1  0
 17 19  1  0
 18 20  2  0
 19 21  2  0
 20 21  1  0
 19 22  1  0
 20 23  1  0
 21 24  1  0
 22 25  1  0
 23 26  1  0
 23 27  1  0
 23 28  1  0
 24 29  1  0
 25 29  1  0
M  END
