mac-x0572-diamond-x0837_0_A
     RDKit          3D

 14 15  0  0  0  0  0  0  0  0999 V2000
   -7.9450   14.7350    3.4270 C   0  0  0  0  0  0  0  0  0  0  0  0
   -7.2500   14.7780    2.0920 C   0  0  0  0  0  0  0  0  0  0  0  0
   -5.8880   15.0280    2.1740 N   0  0  0  0  0  0  0  0  0  0  0  0
   -7.9220   14.5930    0.9350 C   0  0  0  0  0  0  0  0  0  0  0  0
   -9.2770   14.3540    0.8330 O   0  0  0  0  0  0  0  0  0  0  0  0
   -7.1210   14.6490   -0.3090 C   0  0  0  0  0  0  0  0  0  0  0  0
   -5.1280   14.7890    1.1510 C   0  0  0  0  0  0  0  0  0  0  0  0
   -7.6430   14.9940   -1.3660 O   0  0  0  0  0  0  0  0  0  0  0  0
   -5.6960   14.2350   -0.1240 C   0  0  2  0  0  0  0  0  0  0  0  0
   -3.6660   15.0390    1.2310 C   0  0  0  0  0  0  0  0  0  0  0  0
   -2.9410   15.0050    0.0970 C   0  0  0  0  0  0  0  0  0  0  0  0
   -4.8150   14.4000   -1.3100 C   0  0  0  0  0  0  0  0  0  0  0  0
   -3.5340   14.7400   -1.2130 C   0  0  0  0  0  0  0  0  0  0  0  0
   -2.4810   14.8030   -2.9870 I   0  0  0  0  0  0  0  0  0  0  0  0
  1  2  1  0
  2  3  1  0
  2  4  2  0
  4  5  1  0
  4  6  1  0
  3  7  2  0
  6  8  2  0
  6  9  1  0
  7  9  1  0
  7 10  1  0
 10 11  2  0
  9 12  1  6
 11 13  1  0
 12 13  2  0
 13 14  1  0
M  END
