mac-x0411-mac-x0412
     RDKit          3D

 26 28  0  0  0  0  0  0  0  0999 V2000
    0.5850    8.8140   -7.6630 Cl  0  0  0  0  0  0  0  0  0  0  0  0
   -0.6360    9.6040   -6.7180 C   0  0  0  0  0  0  0  0  0  0  0  0
   -0.4910   10.8900   -6.1330 C   0  0  0  0  0  0  0  0  0  0  0  0
   -1.8160    8.8790   -6.5670 C   0  0  0  0  0  0  0  0  0  0  0  0
    0.6770   11.6200   -6.2710 O   0  0  0  0  0  0  0  0  0  0  0  0
   -1.5820   11.4450   -5.3930 C   0  0  0  0  0  0  0  0  0  0  0  0
   -2.8750    9.4080   -5.8450 C   0  0  0  0  0  0  0  0  0  0  0  0
   -1.5680   12.8360   -4.7340 C   0  0  0  0  0  0  0  0  0  0  0  0
    1.1000   12.5060   -5.2200 C   0  0  0  0  0  0  0  0  0  0  0  0
   -2.7600   10.6730   -5.2680 C   0  0  0  0  0  0  0  0  0  0  0  0
    0.9000   11.9700   -3.8060 C   0  0  0  0  0  0  0  0  0  0  0  0
   -1.7310   12.9310   -3.1970 C   0  0  0  0  0  0  0  0  0  0  0  0
    1.3400   12.7910   -2.8310 O   0  0  0  0  0  0  0  0  0  0  0  0
    0.4030   10.8940   -3.5120 O   0  0  0  0  0  0  0  0  0  0  0  0
   -1.8090   14.3830   -2.6330 C   0  0  0  0  0  0  0  0  0  0  0  0
   -3.0820   14.6500   -1.8500 C   0  0  0  0  0  0  0  0  0  0  0  0
   -3.1110   14.7600   -0.4990 C   0  0  0  0  0  0  0  0  0  0  0  0
   -4.3040   14.7630   -2.6190 C   0  0  0  0  0  0  0  0  0  0  0  0
   -4.3670   14.9550    0.2130 C   0  0  0  0  0  0  0  0  0  0  0  0
   -5.4670   15.0970   -2.0520 C   0  0  0  0  0  0  0  0  0  0  0  0
   -5.5830   15.3820   -0.5840 C   0  0  1  0  0  0  0  0  0  0  0  0
   -4.4690   14.7360    1.5260 C   0  0  0  0  0  0  0  0  0  0  0  0
   -6.8630   14.7830    0.0760 C   0  0  0  0  0  0  0  0  0  0  0  0
   -5.8220   14.9050    2.1000 C   0  0  0  0  0  0  0  0  0  0  0  0
   -7.7620   14.2660   -0.5730 O   0  0  0  0  0  0  0  0  0  0  0  0
   -6.9380   14.9010    1.4500 N   0  0  0  0  0  0  0  0  0  0  0  0
  1  2  1  0
  2  3  2  0
  2  4  1  0
  3  5  1  0
  3  6  1  0
  4  7  2  0
  6  8  1  0
  5  9  1  0
  6 10  2  0
  7 10  1  0
  9 11  1  0
  8 12  1  0
 11 13  1  0
 11 14  2  0
 12 15  1  0
 15 16  1  0
 16 17  2  0
 16 18  1  0
 17 19  1  0
 18 20  2  0
 19 21  1  0
 21 20  1  6
 19 22  2  0
 21 23  1  0
 22 24  1  0
 23 25  2  0
 23 26  1  0
 24 26  2  0
M  END
