mac-x0159-mac-x0115
     RDKit          3D

 22 25  0  0  0  0  0  0  0  0999 V2000
   -4.3270   14.8970    1.1260 N   0  0  0  0  0  0  0  0  0  0  0  0
   -3.4870   15.4120    0.0690 C   0  0  1  0  0  0  0  0  0  0  0  0
   -1.9710   15.4550    0.3530 C   0  0  2  0  0  0  0  0  0  0  0  0
   -3.8300   14.6170   -1.0610 N   0  0  0  0  0  0  0  0  0  0  0  0
   -3.2310   15.1900   -2.2320 C   0  0  0  0  0  0  0  0  0  0  0  0
   -1.1180   15.3090   -0.9280 C   0  0  2  0  0  0  0  0  0  0  0  0
   -1.4990   14.4210    1.2820 N   0  0  0  0  0  0  0  0  0  0  0  0
   -1.7970   14.9910   -2.2080 N   0  0  0  0  0  0  0  0  0  0  0  0
   -0.0350   14.3440   -0.5620 N   0  0  0  0  0  0  0  0  0  0  0  0
   -0.1010   14.3170    0.9080 C   0  0  0  0  0  0  0  0  0  0  0  0
   -1.1580   15.7180   -3.3190 C   0  0  2  0  0  0  0  0  0  0  0  0
    1.4860   14.3260   -1.3100 S   0  0  0  0  0  0  0  0  0  0  0  0
   -2.0010   16.3250   -4.4700 C   0  0  0  0  0  0  0  0  0  0  0  0
   -0.3220   14.7780   -4.0410 C   0  0  0  0  0  0  0  0  0  0  0  0
   -1.3050   16.8660   -5.5920 O   0  0  0  0  0  0  0  0  0  0  0  0
   -0.4500   13.3500   -3.9600 C   0  0  0  0  0  0  0  0  0  0  0  0
    0.6540   15.2030   -4.8720 C   0  0  0  0  0  0  0  0  0  0  0  0
    1.0290   16.6390   -5.1570 C   0  0  0  0  0  0  0  0  0  0  0  0
   -0.1350   17.5830   -5.2440 C   0  0  1  0  0  0  0  0  0  0  0  0
    1.4250   13.8270   -5.5490 S   0  0  0  0  0  0  0  0  0  0  0  0
    0.4560   12.7060   -4.7420 C   0  0  0  0  0  0  0  0  0  0  0  0
    0.1900   18.5940   -6.3260 C   0  0  0  0  0  0  0  0  0  0  0  0
  2  1  1  1
  2  3  1  0
  2  4  1  0
  4  5  1  0
  3  6  1  0
  3  7  1  1
  5  8  1  0
  6  8  1  6
  6  9  1  0
  7 10  1  0
  9 10  1  0
 11  8  1  1
  9 12  1  0
 11 13  1  0
 11 14  1  0
 13 15  1  0
 14 16  1  0
 14 17  2  0
 17 18  1  0
 15 19  1  0
 18 19  1  0
 17 20  1  0
 16 21  2  0
 20 21  1  0
 19 22  1  6
M  END
