mac-x0131-mac-x0228
     RDKit          3D

 29 33  0  0  0  0  0  0  0  0999 V2000
   -3.9630   15.2400   -3.3510 C   0  0  0  0  0  0  0  0  0  0  0  0
   -3.2680   14.9950   -2.0570 C   0  0  0  0  0  0  0  0  0  0  0  0
   -3.6650   15.3510   -0.8250 C   0  0  0  0  0  0  0  0  0  0  0  0
   -2.0680   14.3030   -1.9720 N   0  0  0  0  0  0  0  0  0  0  0  0
   -4.8900   16.0530   -0.4170 C   0  0  0  0  0  0  0  0  0  0  0  0
   -1.6290   13.7870   -3.1520 C   0  0  0  0  0  0  0  0  0  0  0  0
   -2.6670   14.9090    0.0450 C   0  0  0  0  0  0  0  0  0  0  0  0
   -1.6570   14.2860   -0.6620 C   0  0  0  0  0  0  0  0  0  0  0  0
   -2.7680   13.4860   -3.7730 C   0  0  0  0  0  0  0  0  0  0  0  0
   -2.5670   14.9890    1.3840 C   0  0  0  0  0  0  0  0  0  0  0  0
   -0.5370   13.7620   -0.1350 N   0  0  0  0  0  0  0  0  0  0  0  0
   -0.3720   13.4380   -3.7210 C   0  0  0  0  0  0  0  0  0  0  0  0
   -3.5900   15.5540    2.1220 N   0  0  0  0  0  0  0  0  0  0  0  0
   -2.8910   12.9020   -5.0020 O   0  0  0  0  0  0  0  0  0  0  0  0
   -1.4720   14.5010    1.9710 N   0  0  0  0  0  0  0  0  0  0  0  0
   -0.5300   13.9300    1.2000 C   0  0  0  0  0  0  0  0  0  0  0  0
    0.9530   13.8190   -3.5420 C   0  0  0  0  0  0  0  0  0  0  0  0
   -0.3840   12.4670   -4.7000 O   0  0  0  0  0  0  0  0  0  0  0  0
   -4.0570   13.7850   -3.0310 C   0  0  0  0  0  0  0  0  0  0  0  0
    0.8680   12.2480   -5.1220 C   0  0  0  0  0  0  0  0  0  0  0  0
    1.7400   13.0520   -4.4400 C   0  0  0  0  0  0  0  0  0  0  0  0
   -4.1490   13.3870   -1.6600 C   0  0  0  0  0  0  0  0  0  0  0  0
   -5.1770   14.4440   -3.6030 C   0  0  0  0  0  0  0  0  0  0  0  0
   -5.3010   13.6610   -0.9300 C   0  0  0  0  0  0  0  0  0  0  0  0
   -6.3350   14.7070   -2.8390 C   0  0  0  0  0  0  0  0  0  0  0  0
   -6.3680   14.3120   -1.5150 C   0  0  0  0  0  0  0  0  0  0  0  0
   -5.6150   13.3560    0.4910 C   0  0  0  0  0  0  0  0  0  0  0  0
   -7.4340   14.5190   -0.6660 O   0  0  0  0  0  0  0  0  0  0  0  0
   -6.9870   14.0230    0.6210 C   0  0  0  0  0  0  0  0  0  0  0  0
  1  2  1  0
  2  3  2  0
  2  4  1  0
  3  5  1  0
  4  6  1  0
  3  7  1  0
  4  8  1  0
  7  8  2  0
  6  9  2  3
  7 10  1  0
  8 11  1  0
  6 12  1  0
 10 13  1  0
  9 14  1  0
 10 15  2  0
 11 16  2  0
 15 16  1  0
 12 17  2  0
 12 18  1  0
  9 19  1  0
 18 20  1  0
 17 21  1  0
 20 21  2  0
 19 22  2  0
 19 23  1  0
 22 24  1  0
 23 25  2  0
 24 26  2  0
 25 26  1  0
 24 27  1  0
 26 28  1  0
 27 29  1  0
 28 29  1  0
M  END
