mac-x0277-mac-x0496
     RDKit          3D

 32 34  0  0  0  0  0  0  0  0999 V2000
   -1.3090   18.3630   -5.2710 Cl  0  0  0  0  0  0  0  0  0  0  0  0
   -0.5970   16.8150   -4.9840 C   0  0  0  0  0  0  0  0  0  0  0  0
   -1.3380   15.6240   -5.0750 C   0  0  0  0  0  0  0  0  0  0  0  0
    0.7610   16.7760   -4.6550 C   0  0  0  0  0  0  0  0  0  0  0  0
   -2.8150   15.5830   -5.4280 C   0  0  0  0  0  0  0  0  0  0  0  0
   -0.6810   14.4060   -4.8350 C   0  0  0  0  0  0  0  0  0  0  0  0
    1.3950   15.5530   -4.4170 C   0  0  0  0  0  0  0  0  0  0  0  0
   -3.7380   15.3600   -4.2270 C   0  0  0  0  0  0  0  0  0  0  0  0
    0.6810   14.3560   -4.5080 C   0  0  0  0  0  0  0  0  0  0  0  0
    1.3580   13.0260   -4.2610 C   0  0  0  0  0  0  0  0  0  0  0  0
   -3.3210   14.3240   -3.3530 O   0  0  0  0  0  0  0  0  0  0  0  0
    1.0050   12.4020   -2.9320 C   0  0  0  0  0  0  0  0  0  0  0  0
   -2.5080   14.7220   -2.3590 C   0  0  0  0  0  0  0  0  0  0  0  0
    0.2560   11.2850   -3.0680 O   0  0  0  0  0  0  0  0  0  0  0  0
    1.3050   12.7850   -1.8210 O   0  0  0  0  0  0  0  0  0  0  0  0
   -1.3310   14.9950   -2.4830 O   0  0  0  0  0  0  0  0  0  0  0  0
   -3.2110   14.7900   -1.0480 C   0  0  0  0  0  0  0  0  0  0  0  0
   -2.4900   14.9210    0.1460 C   0  0  0  0  0  0  0  0  0  0  0  0
   -4.6120   14.7160   -1.0150 C   0  0  0  0  0  0  0  0  0  0  0  0
   -3.1560   14.9830    1.3620 C   0  0  0  0  0  0  0  0  0  0  0  0
   -5.2750   14.7730    0.2200 C   0  0  0  0  0  0  0  0  0  0  0  0
   -6.7520   14.6850    0.3650 C   0  0  0  0  0  0  0  0  0  0  0  0
   -4.5380   14.9120    1.3930 C   0  0  0  0  0  0  0  0  0  0  0  0
   -7.2280   14.3670    1.6210 N   0  0  0  0  0  0  0  0  0  0  0  0
   -7.4840   14.8830   -0.5950 O   0  0  0  0  0  0  0  0  0  0  0  0
   -8.6430   14.0740    1.7980 C   0  0  0  0  0  0  0  0  0  0  0  0
   -9.3250   15.2120    2.4660 C   0  0  0  0  0  0  0  0  0  0  0  0
  -10.5210   15.6260    1.9490 O   0  0  0  0  0  0  0  0  0  0  0  0
   -8.9440   15.9050    3.5180 N   0  0  0  0  0  0  0  0  0  0  0  0
   -9.9630   16.8040    3.6610 C   0  0  0  0  0  0  0  0  0  0  0  0
  -10.9440   16.6830    2.7570 N   0  0  0  0  0  0  0  0  0  0  0  0
   -9.9670   17.8150    4.7380 C   0  0  0  0  0  0  0  0  0  0  0  0
  1  2  1  0
  2  3  2  0
  2  4  1  0
  3  5  1  0
  3  6  1  0
  4  7  2  0
  5  8  1  0
  6  9  2  0
  7  9  1  0
  9 10  1  0
  8 11  1  0
 10 12  1  0
 11 13  1  0
 12 14  1  0
 12 15  2  0
 13 16  2  0
 13 17  1  0
 17 18  2  0
 17 19  1  0
 18 20  1  0
 19 21  2  0
 21 22  1  0
 20 23  2  0
 21 23  1  0
 22 24  1  0
 22 25  2  0
 24 26  1  0
 26 27  1  0
 27 28  1  0
 27 29  2  0
 29 30  1  0
 28 31  1  0
 30 31  2  0
 30 32  1  0
M  END
