mac-x0572-mac-x0567
     RDKit          3D

 18 20  0  0  0  0  0  0  0  0999 V2000
   -7.9330   14.0650    3.4140 C   0  0  0  0  0  0  0  0  0  0  0  0
   -7.2430   14.2890    2.0930 C   0  0  0  0  0  0  0  0  0  0  0  0
   -5.8790   14.0510    2.0880 N   0  0  0  0  0  0  0  0  0  0  0  0
   -7.8720   14.6870    0.9770 C   0  0  0  0  0  0  0  0  0  0  0  0
   -9.2240   14.9320    0.8570 O   0  0  0  0  0  0  0  0  0  0  0  0
   -7.0230   14.8850   -0.2380 C   0  0  0  0  0  0  0  0  0  0  0  0
   -5.0080   14.4610    1.0890 C   0  0  0  0  0  0  0  0  0  0  0  0
   -7.5470   14.9910   -1.3460 O   0  0  0  0  0  0  0  0  0  0  0  0
   -5.5100   14.9300   -0.0790 C   0  0  0  0  0  0  0  0  0  0  0  0
   -3.5790   14.3240    1.4260 C   0  0  0  0  0  0  0  0  0  0  0  0
   -4.7980   15.4590   -1.2150 C   0  0  0  0  0  0  0  0  0  0  0  0
   -2.5090   14.7510    0.7600 C   0  0  0  0  0  0  0  0  0  0  0  0
   -2.4290   15.4900   -0.4530 C   0  0  0  0  0  0  0  0  0  0  0  0
   -3.5140   15.7090   -1.3860 C   0  0  0  0  0  0  0  0  0  0  0  0
   -1.0600   14.6160    1.1010 C   0  0  0  0  0  0  0  0  0  0  0  0
   -0.3850   13.8680    1.9980 N   0  0  0  0  0  0  0  0  0  0  0  0
   -0.3800   15.3920    0.3550 N   0  0  0  0  0  0  0  0  0  0  0  0
   -1.2470   15.9410   -0.6240 N   0  0  0  0  0  0  0  0  0  0  0  0
  1  2  1  0
  2  3  1  0
  2  4  2  0
  4  5  1  0
  4  6  1  0
  3  7  1  0
  6  8  2  0
  6  9  1  0
  7  9  2  0
  7 10  1  0
  9 11  1  0
 10 12  2  0
 12 13  1  0
 11 14  2  0
 13 14  1  0
 12 15  1  0
 15 16  1  0
 15 17  2  0
 13 18  2  0
 17 18  1  0
M  END
