mac-x0188-diamond-x0910_0_A
     RDKit          3D

 20 22  0  0  0  0  0  0  0  0999 V2000
    1.2900   13.0800   -5.0380 C   0  0  0  0  0  0  0  0  0  0  0  0
   -0.0090   13.4900   -4.4580 C   0  0  0  0  0  0  0  0  0  0  0  0
   -1.0600   13.4840   -5.3080 O   0  0  0  0  0  0  0  0  0  0  0  0
   -0.4160   13.8960   -3.1930 C   0  0  0  0  0  0  0  0  0  0  0  0
    0.5180   13.9950   -2.0910 C   0  0  0  0  0  0  0  0  0  0  0  0
   -2.1900   13.8830   -4.6400 N   0  0  0  0  0  0  0  0  0  0  0  0
   -1.8410   14.1450   -3.3620 C   0  0  0  0  0  0  0  0  0  0  0  0
    1.2720   14.9450   -1.9290 O   0  0  0  0  0  0  0  0  0  0  0  0
    0.5810   12.9730   -1.1840 O   0  0  0  0  0  0  0  0  0  0  0  0
   -2.9390   14.6040   -2.4690 C   0  0  0  0  0  0  0  0  0  0  0  0
   -4.1890   14.7820   -3.0970 C   0  0  0  0  0  0  0  0  0  0  0  0
   -2.8920   14.8900   -1.0850 C   0  0  0  0  0  0  0  0  0  0  0  0
   -5.3180   15.2140   -2.3910 C   0  0  0  0  0  0  0  0  0  0  0  0
   -4.0340   15.3190   -0.4000 C   0  0  0  0  0  0  0  0  0  0  0  0
   -1.7670   14.8240   -0.2220 C   0  0  0  0  0  0  0  0  0  0  0  0
   -5.2360   15.4810   -1.0420 C   0  0  0  0  0  0  0  0  0  0  0  0
   -1.8580   14.5010    1.0950 N   0  0  0  0  0  0  0  0  0  0  0  0
   -0.5380   15.0810   -0.5220 N   0  0  0  0  0  0  0  0  0  0  0  0
   -0.6640   14.5660    1.6730 N   0  0  0  0  0  0  0  0  0  0  0  0
    0.0870   14.9400    0.6430 C   0  0  0  0  0  0  0  0  0  0  0  0
  1  2  1  0
  2  3  1  0
  2  4  2  0
  4  5  1  0
  3  6  1  0
  4  7  1  0
  6  7  2  0
  5  8  2  0
  5  9  1  0
  7 10  1  0
 10 11  2  0
 10 12  1  0
 11 13  1  0
 12 14  2  0
 12 15  1  0
 13 16  2  0
 14 16  1  0
 15 17  1  0
 15 18  2  0
 17 19  1  0
 18 20  1  0
 19 20  2  0
M  END
