mac-x0148-mac-x0441
     RDKit          3D

 34 39  0  0  0  0  0  0  0  0999 V2000
    0.3560   11.0360   -3.7530 O   0  0  0  0  0  0  0  0  0  0  0  0
    0.4980   11.1240   -2.4450 C   0  0  0  0  0  0  0  0  0  0  0  0
    0.6020   12.2480   -1.8440 N   0  0  0  0  0  0  0  0  0  0  0  0
    0.5630   13.4410   -2.7000 C   0  0  1  0  0  0  0  0  0  0  0  0
    0.9220   13.0710   -4.1320 C   0  0  0  0  0  0  0  0  0  0  0  0
   -0.7250   14.1650   -2.5910 N   0  0  0  0  0  0  0  0  0  0  0  0
   -1.3000   14.8210   -3.8160 C   0  0  2  0  0  0  0  0  0  0  0  0
   -0.3550   12.7400   -4.8400 C   0  0  1  0  0  0  0  0  0  0  0  0
   -1.1110   14.4630   -1.2570 C   0  0  0  0  0  0  0  0  0  0  0  0
   -2.8130   15.0490   -3.8330 C   0  0  0  0  0  0  0  0  0  0  0  0
   -1.0450   14.0580   -5.1300 C   0  0  1  0  0  0  0  0  0  0  0  0
   -0.1160   14.4240   -0.2980 N   0  0  0  0  0  0  0  0  0  0  0  0
   -2.3410   14.7820   -0.7690 C   0  0  0  0  0  0  0  0  0  0  0  0
   -0.2390   11.8100   -5.9680 N   0  0  0  0  0  0  0  0  0  0  0  0
   -2.4440   13.8090   -5.6740 C   0  0  0  0  0  0  0  0  0  0  0  0
   -3.2100   14.9140   -5.2030 O   0  0  0  0  0  0  0  0  0  0  0  0
   -0.3650   14.6110    1.0350 C   0  0  0  0  0  0  0  0  0  0  0  0
   -2.5040   15.0290    0.6900 C   0  0  0  0  0  0  0  0  0  0  0  0
   -3.6710   14.9840   -1.2590 C   0  0  0  0  0  0  0  0  0  0  0  0
    0.6140   11.9320   -7.0330 N   0  0  0  0  0  0  0  0  0  0  0  0
   -1.0090   10.7060   -6.0530 C   0  0  0  0  0  0  0  0  0  0  0  0
   -1.4850   14.9020    1.5730 N   0  0  0  0  0  0  0  0  0  0  0  0
   -3.7100   15.3780    1.0120 N   0  0  0  0  0  0  0  0  0  0  0  0
   -4.3970   15.3350   -0.1850 C   0  0  0  0  0  0  0  0  0  0  0  0
    0.3260   10.8390   -7.8130 C   0  0  0  0  0  0  0  0  0  0  0  0
   -0.6800   10.0690   -7.2080 C   0  0  0  0  0  0  0  0  0  0  0  0
   -2.0320   10.2610   -5.0890 C   0  0  0  0  0  0  0  0  0  0  0  0
    0.9220   10.4200   -9.1450 C   0  0  0  0  0  0  0  0  0  0  0  0
   -1.3270    8.8070   -7.6620 C   0  0  0  0  0  0  0  0  0  0  0  0
   -3.0700    9.4470   -5.8680 C   0  0  0  0  0  0  0  0  0  0  0  0
    1.6320    9.2630   -9.0900 F   0  0  0  0  0  0  0  0  0  0  0  0
   -0.0700   10.1730  -10.0350 F   0  0  0  0  0  0  0  0  0  0  0  0
    1.6640   11.3310   -9.7930 F   0  0  0  0  0  0  0  0  0  0  0  0
   -2.4000    8.3140   -6.6670 C   0  0  0  0  0  0  0  0  0  0  0  0
  1  2  1  0
  2  3  2  3
  4  3  1  1
  4  5  1  0
  4  6  1  0
  6  7  1  0
  5  8  1  0
  6  9  1  0
  7 10  1  1
  7 11  1  0
  8 11  1  0
  9 12  1  0
  9 13  2  0
  8 14  1  6
 11 15  1  1
 10 16  1  0
 15 16  1  0
 12 17  1  0
 13 18  1  0
 13 19  1  0
 14 20  1  0
 14 21  1  0
 17 22  2  0
 18 22  1  0
 18 23  2  0
 19 24  2  0
 23 24  1  0
 20 25  2  0
 21 26  2  0
 25 26  1  0
 21 27  1  0
 25 28  1  0
 26 29  1  0
 27 30  1  0
 28 31  1  0
 28 32  1  0
 28 33  1  0
 29 34  1  0
 30 34  1  0
M  END
