mac-x0283-diamond-x0104_0_A
     RDKit          3D

 20 22  0  0  0  0  0  0  0  0999 V2000
   -6.8230   14.7340    2.3990 N   0  0  0  0  0  0  0  0  0  0  0  0
   -8.0520   15.0880    2.9580 C   0  0  0  0  0  0  0  0  0  0  0  0
   -7.9660   14.9120    4.3360 N   0  0  0  0  0  0  0  0  0  0  0  0
   -6.4280   14.6790    1.0720 C   0  0  0  0  0  0  0  0  0  0  0  0
   -9.0410   15.4840    2.3500 O   0  0  0  0  0  0  0  0  0  0  0  0
   -7.2880   14.6660   -0.0200 N   0  0  0  0  0  0  0  0  0  0  0  0
   -5.1340   14.6460    0.6740 C   0  0  0  0  0  0  0  0  0  0  0  0
   -6.4780   14.6080   -1.0560 C   0  0  0  0  0  0  0  0  0  0  0  0
   -5.0370   14.5340   -0.8030 C   0  0  1  0  0  0  0  0  0  0  0  0
   -3.8510   14.6690    1.3220 C   0  0  0  0  0  0  0  0  0  0  0  0
   -9.0340   14.9960    5.2220 C   0  0  0  0  0  0  0  0  0  0  0  0
   -6.6880   14.5860   -2.3770 O   0  0  0  0  0  0  0  0  0  0  0  0
   -4.0660   15.4780   -1.4050 C   0  0  0  0  0  0  0  0  0  0  0  0
   -2.8180   15.2220    0.6440 C   0  0  0  0  0  0  0  0  0  0  0  0
   -9.1100   15.1640    6.5850 C   0  0  0  0  0  0  0  0  0  0  0  0
  -10.5760   14.8650    4.5020 S   0  0  0  0  0  0  0  0  0  0  0  0
   -5.4640   14.5820   -3.1440 C   0  0  0  0  0  0  0  0  0  0  0  0
   -2.9940   15.7830   -0.6880 C   0  0  0  0  0  0  0  0  0  0  0  0
  -11.3670   15.0320    6.0150 C   0  0  0  0  0  0  0  0  0  0  0  0
  -10.4670   15.1850    7.0490 C   0  0  0  0  0  0  0  0  0  0  0  0
  1  2  1  0
  2  3  1  0
  1  4  1  0
  2  5  2  0
  4  6  1  0
  4  7  2  0
  6  8  2  0
  7  9  1  0
  8  9  1  0
  7 10  1  0
  3 11  1  0
  8 12  1  0
  9 13  1  6
 10 14  2  0
 11 15  2  0
 11 16  1  0
 12 17  1  0
 13 18  2  0
 14 18  1  0
 16 19  1  0
 15 20  1  0
 19 20  2  0
M  END
