mac-x0365-diamond-x0574_0_A
     RDKit          3D

 17 18  0  0  0  0  0  0  0  0999 V2000
   -0.7030   14.7940   -1.7790 O   0  0  0  0  0  0  0  0  0  0  0  0
   -1.8010   14.8000   -2.5600 C   0  0  0  0  0  0  0  0  0  0  0  0
   -1.7070   14.5010   -3.7340 O   0  0  0  0  0  0  0  0  0  0  0  0
   -3.0550   15.2160   -1.8060 C   0  0  1  0  0  0  0  0  0  0  0  0
   -4.2720   14.4950   -2.3980 C   0  0  0  0  0  0  0  0  0  0  0  0
   -2.9900   15.1800   -0.2610 C   0  0  2  0  0  0  0  0  0  0  0  0
   -5.5770   14.5900   -1.5900 C   0  0  2  0  0  0  0  0  0  0  0  0
   -4.3280   15.6600    0.3620 C   0  0  0  0  0  0  0  0  0  0  0  0
   -1.3390   15.8180    0.3460 S   0  0  0  0  0  0  0  0  0  0  0  0
   -2.8900   13.7750    0.3750 C   0  0  0  0  0  0  0  0  0  0  0  0
   -6.2860   15.6580   -2.0500 F   0  0  0  0  0  0  0  0  0  0  0  0
   -5.4320   14.6730   -0.0540 C   0  0  1  0  0  0  0  0  0  0  0  0
   -2.1360   13.9680    1.6150 N   0  0  0  0  0  0  0  0  0  0  0  0
   -0.8880   14.2450    1.0380 C   0  0  2  0  0  0  0  0  0  0  0  0
   -6.7090   15.0210    0.5100 O   0  0  0  0  0  0  0  0  0  0  0  0
    0.0890   14.2460    2.0740 N   0  0  0  0  0  0  0  0  0  0  0  0
   -6.8260   14.6070    1.8800 C   0  0  0  0  0  0  0  0  0  0  0  0
  1  2  1  0
  2  3  2  0
  4  2  1  6
  4  5  1  0
  4  6  1  0
  5  7  1  0
  6  8  1  1
  6  9  1  0
  6 10  1  0
  7 11  1  6
  7 12  1  0
  8 12  1  0
 10 13  1  0
  9 14  1  0
 13 14  1  0
 12 15  1  1
 14 16  1  1
 15 17  1  0
M  END
