mac-x0337-mac-x0402
     RDKit          3D

 22 24  0  0  0  0  0  0  0  0999 V2000
   -5.4480   10.2690   -2.6760 C   0  0  0  0  0  0  0  0  0  0  0  0
   -4.7870   11.3010   -1.8130 C   0  0  0  0  0  0  0  0  0  0  0  0
   -5.3670   11.6810   -0.5950 C   0  0  0  0  0  0  0  0  0  0  0  0
   -3.5820   11.8930   -2.2090 C   0  0  0  0  0  0  0  0  0  0  0  0
   -2.9650   12.8540   -1.4050 C   0  0  0  0  0  0  0  0  0  0  0  0
   -4.7530   12.6330    0.2170 C   0  0  0  0  0  0  0  0  0  0  0  0
   -3.5590   13.2180   -0.1930 C   0  0  0  0  0  0  0  0  0  0  0  0
   -2.7700   14.4520    0.8160 S   0  0  0  0  0  0  0  0  0  0  0  0
   -1.9800   15.1880   -0.1250 O   0  0  0  0  0  0  0  0  0  0  0  0
   -2.1750   13.9180    2.0080 O   0  0  0  0  0  0  0  0  0  0  0  0
   -4.1860   15.3190    1.3310 N   0  0  0  0  0  0  0  0  0  0  0  0
   -5.2580   14.8100    0.5050 N   0  0  0  0  0  0  0  0  0  0  0  0
   -6.5730   14.5850    1.1760 C   0  0  2  0  0  0  0  0  0  0  0  0
   -5.4700   15.5800   -0.7540 C   0  0  2  0  0  0  0  0  0  0  0  0
   -6.7090   13.2870    1.7880 N   0  0  0  0  0  0  0  0  0  0  0  0
   -6.7970   15.1900   -1.4240 C   0  0  2  0  0  0  0  0  0  0  0  0
   -7.9030   14.7950   -0.0350 S   0  0  0  0  0  0  0  0  0  0  0  0
   -4.3010   15.5080   -1.6990 C   0  0  0  0  0  0  0  0  0  0  0  0
   -4.3630   14.9560   -2.9160 C   0  0  0  0  0  0  0  0  0  0  0  0
   -6.6520   14.0140   -2.3930 C   0  0  0  0  0  0  0  0  0  0  0  0
   -5.6100   14.3360   -3.4760 C   0  0  2  0  0  0  0  0  0  0  0  0
   -5.1600   12.8580   -4.3720 Cl  0  0  0  0  0  0  0  0  0  0  0  0
  1  2  1  0
  2  3  2  0
  2  4  1  0
  4  5  2  0
  3  6  1  0
  5  7  1  0
  6  7  2  0
  7  8  1  0
  8  9  2  0
  8 10  2  0
  8 11  1  0
 11 12  1  0
 12 13  1  0
 12 14  1  0
 13 15  1  6
 14 16  1  0
 13 17  1  0
 16 17  1  0
 14 18  1  6
 18 19  2  0
 16 20  1  6
 19 21  1  0
 20 21  1  0
 21 22  1  1
M  END
