mac-x1493-mac-x0357
     RDKit          3D

 23 25  0  0  0  0  0  0  0  0999 V2000
   -0.9790   14.2820   -1.9190 N   0  0  0  0  0  0  0  0  0  0  0  0
   -2.1270   14.7700   -2.5370 C   0  0  0  0  0  0  0  0  0  0  0  0
   -2.1400   15.2160   -3.6770 O   0  0  0  0  0  0  0  0  0  0  0  0
   -0.1700   13.4150   -2.5110 C   0  0  0  0  0  0  0  0  0  0  0  0
    0.9060   13.0140   -1.8070 O   0  0  0  0  0  0  0  0  0  0  0  0
   -3.4150   14.7500   -1.7580 C   0  0  0  0  0  0  0  0  0  0  0  0
   -0.1560   12.7290   -3.8370 C   0  0  0  0  0  0  0  0  0  0  0  0
   -3.5070   14.9010   -0.3660 C   0  0  0  0  0  0  0  0  0  0  0  0
   -4.6070   14.5650   -2.4490 C   0  0  0  0  0  0  0  0  0  0  0  0
    0.9790   12.7000   -4.6970 C   0  0  0  0  0  0  0  0  0  0  0  0
   -1.3490   12.0850   -4.2110 C   0  0  0  0  0  0  0  0  0  0  0  0
    2.2860   13.3650   -4.3480 C   0  0  0  0  0  0  0  0  0  0  0  0
   -4.7690   14.8440    0.2640 C   0  0  0  0  0  0  0  0  0  0  0  0
   -5.8330   14.5090   -1.8680 N   0  0  0  0  0  0  0  0  0  0  0  0
   -1.4350   11.4110   -5.4280 C   0  0  0  0  0  0  0  0  0  0  0  0
    0.8470   12.0100   -5.9160 C   0  0  0  0  0  0  0  0  0  0  0  0
    1.8630   11.9080   -6.8190 O   0  0  0  0  0  0  0  0  0  0  0  0
   -5.9140   14.6400   -0.5370 C   0  0  0  0  0  0  0  0  0  0  0  0
   -4.9140   14.9780    1.6540 C   0  0  0  0  0  0  0  0  0  0  0  0
   -0.3370   11.3750   -6.2800 C   0  0  0  0  0  0  0  0  0  0  0  0
   -7.1600   14.5690    0.0750 C   0  0  0  0  0  0  0  0  0  0  0  0
   -6.1790   14.9020    2.2430 C   0  0  0  0  0  0  0  0  0  0  0  0
   -7.3040   14.6940    1.4560 C   0  0  0  0  0  0  0  0  0  0  0  0
  1  2  1  0
  2  3  2  0
  1  4  2  3
  4  5  1  0
  2  6  1  0
  4  7  1  0
  6  8  2  0
  6  9  1  0
  7 10  2  0
  7 11  1  0
 10 12  1  0
  8 13  1  0
  9 14  2  0
 11 15  2  0
 10 16  1  0
 16 17  1  0
 13 18  2  0
 14 18  1  0
 13 19  1  0
 15 20  1  0
 16 20  2  0
 18 21  1  0
 19 22  2  0
 21 23  2  0
 22 23  1  0
M  END
