mac-x0385-diamond-x0905_0_A
     RDKit          3D

 16 17  0  0  0  0  0  0  0  0999 V2000
   -4.5160   14.1700   -1.1830 C   0  0  0  0  0  0  0  0  0  0  0  0
   -3.1980   14.4950   -0.5580 C   0  0  0  0  0  0  0  0  0  0  0  0
   -2.0870   14.3890   -1.3340 C   0  0  0  0  0  0  0  0  0  0  0  0
   -3.0150   14.9080    0.7750 C   0  0  0  0  0  0  0  0  0  0  0  0
   -4.1820   15.0530    1.4760 N   0  0  0  0  0  0  0  0  0  0  0  0
   -1.8290   15.1550    1.2700 N   0  0  0  0  0  0  0  0  0  0  0  0
   -0.8830   14.6460   -0.8820 N   0  0  0  0  0  0  0  0  0  0  0  0
   -0.8400   15.0120    0.3960 C   0  0  0  0  0  0  0  0  0  0  0  0
   -5.1350   15.1180    0.5300 C   0  0  0  0  0  0  0  0  0  0  0  0
    0.4510   15.3120    0.8990 C   0  0  0  0  0  0  0  0  0  0  0  0
   -6.4070   14.7550    0.7350 N   0  0  0  0  0  0  0  0  0  0  0  0
   -4.6530   15.5780   -0.6870 C   0  0  0  0  0  0  0  0  0  0  0  0
   -5.4880   15.6690   -1.7630 C   0  0  0  0  0  0  0  0  0  0  0  0
   -7.1870   14.8750   -0.3570 C   0  0  0  0  0  0  0  0  0  0  0  0
   -8.4680   14.5160   -0.1560 O   0  0  0  0  0  0  0  0  0  0  0  0
   -6.8000   15.3120   -1.6070 C   0  0  0  0  0  0  0  0  0  0  0  0
  1  2  1  0
  2  3  2  0
  2  4  1  0
  4  5  1  0
  4  6  2  0
  3  7  1  0
  6  8  1  0
  7  8  2  0
  5  9  1  0
  8 10  1  0
  9 11  2  0
  9 12  1  0
 12 13  2  0
 11 14  1  0
 14 15  1  0
 13 16  1  0
 14 16  2  0
M  END
