mac-x0564-mac-x0437
     RDKit          3D

 27 31  0  0  0  0  0  0  0  0999 V2000
    0.5540   13.0370   -2.3830 N   0  0  0  0  0  0  0  0  0  0  0  0
    1.6790   12.7970   -3.1420 C   0  0  0  0  0  0  0  0  0  0  0  0
    2.6850   12.3580   -2.6630 O   0  0  0  0  0  0  0  0  0  0  0  0
   -0.1910   14.0490   -2.6460 C   0  0  0  0  0  0  0  0  0  0  0  0
    1.6370   13.0680   -4.6520 C   0  0  0  0  0  0  0  0  0  0  0  0
   -1.4700   14.4090   -2.1030 C   0  0  0  0  0  0  0  0  0  0  0  0
    0.1940   14.8840   -3.6610 N   0  0  0  0  0  0  0  0  0  0  0  0
    0.2750   13.1320   -5.3530 C   0  0  0  0  0  0  0  0  0  0  0  0
   -2.4360   14.6930   -3.0120 C   0  0  0  0  0  0  0  0  0  0  0  0
   -0.7950   15.1430   -4.4510 C   0  0  0  0  0  0  0  0  0  0  0  0
   -1.9520   14.5100   -0.8270 O   0  0  0  0  0  0  0  0  0  0  0  0
   -2.0890   14.6690   -4.3100 N   0  0  0  0  0  0  0  0  0  0  0  0
   -3.2890   14.8390   -0.9890 C   0  0  0  0  0  0  0  0  0  0  0  0
   -3.6150   14.9480   -2.3420 C   0  0  0  0  0  0  0  0  0  0  0  0
   -0.4630   11.8990   -5.5660 N   0  0  0  0  0  0  0  0  0  0  0  0
   -4.9170   15.2540   -2.7180 C   0  0  0  0  0  0  0  0  0  0  0  0
   -4.2180   15.0360    0.0240 C   0  0  0  0  0  0  0  0  0  0  0  0
   -1.5480   11.4950   -4.8360 C   0  0  0  0  0  0  0  0  0  0  0  0
   -0.2190   10.9460   -6.5190 C   0  0  0  0  0  0  0  0  0  0  0  0
   -5.8700   15.4520   -1.7270 C   0  0  0  0  0  0  0  0  0  0  0  0
   -5.5220   15.3430   -0.3830 C   0  0  0  0  0  0  0  0  0  0  0  0
   -2.0190   10.3440   -5.2550 N   0  0  0  0  0  0  0  0  0  0  0  0
   -1.2060    9.9870   -6.2990 C   0  0  0  0  0  0  0  0  0  0  0  0
    0.7380   10.8220   -7.5290 C   0  0  0  0  0  0  0  0  0  0  0  0
   -1.2550    8.8490   -7.1100 C   0  0  0  0  0  0  0  0  0  0  0  0
    0.6760    9.6790   -8.3300 C   0  0  0  0  0  0  0  0  0  0  0  0
   -0.3040    8.7040   -8.1280 C   0  0  0  0  0  0  0  0  0  0  0  0
  1  2  1  0
  2  3  2  0
  1  4  2  3
  2  5  1  0
  4  6  1  0
  4  7  1  0
  5  8  1  0
  6  9  2  0
  7 10  2  0
  6 11  1  0
  9 12  1  0
 10 12  1  0
 11 13  1  0
  9 14  1  0
 13 14  2  0
  8 15  1  0
 14 16  1  0
 13 17  1  0
 15 18  1  0
 15 19  1  0
 16 20  2  0
 17 21  2  0
 20 21  1  0
 18 22  2  0
 19 23  2  0
 22 23  1  0
 19 24  1  0
 23 25  1  0
 24 26  2  0
 25 27  2  0
 26 27  1  0
M  END
