mac-x0417-diamond-x1012_0_A
     RDKit          3D

 23 25  0  0  0  0  0  0  0  0999 V2000
    0.3270   12.8270   -2.4700 C   0  0  0  0  0  0  0  0  0  0  0  0
    0.6010   11.7130   -3.3990 C   0  0  0  0  0  0  0  0  0  0  0  0
    0.5530   10.5510   -3.0410 O   0  0  0  0  0  0  0  0  0  0  0  0
    0.4110   12.7560   -1.2450 O   0  0  0  0  0  0  0  0  0  0  0  0
   -0.0710   13.9880   -3.3180 C   0  0  0  0  0  0  0  0  0  0  0  0
    0.9090   12.2880   -4.7670 C   0  0  0  0  0  0  0  0  0  0  0  0
   -1.5300   14.3650   -3.3150 C   0  0  0  0  0  0  0  0  0  0  0  0
    0.8680   15.1660   -3.3600 C   0  0  0  0  0  0  0  0  0  0  0  0
    0.4940   11.4390   -5.8950 C   0  0  0  0  0  0  0  0  0  0  0  0
   -1.7660   15.0520   -4.6510 C   0  0  0  0  0  0  0  0  0  0  0  0
    0.6520   15.8570   -4.6980 C   0  0  0  0  0  0  0  0  0  0  0  0
    1.3040   11.3930   -6.9520 N   0  0  0  0  0  0  0  0  0  0  0  0
   -0.6450   10.6170   -6.0750 C   0  0  0  0  0  0  0  0  0  0  0  0
   -0.7850   16.1190   -4.9270 N   0  0  0  0  0  0  0  0  0  0  0  0
   -1.2980   17.3720   -4.8310 C   0  0  0  0  0  0  0  0  0  0  0  0
    0.7130   10.5360   -7.8540 O   0  0  0  0  0  0  0  0  0  0  0  0
   -0.4470   10.0710   -7.3310 C   0  0  0  0  0  0  0  0  0  0  0  0
   -1.7980   10.2630   -5.3570 C   0  0  0  0  0  0  0  0  0  0  0  0
   -0.4320   18.3880   -4.7290 N   0  0  0  0  0  0  0  0  0  0  0  0
   -2.4840   17.6200   -4.8160 O   0  0  0  0  0  0  0  0  0  0  0  0
   -1.3160    9.1790   -7.9480 C   0  0  0  0  0  0  0  0  0  0  0  0
   -2.6980    9.3640   -5.9490 C   0  0  0  0  0  0  0  0  0  0  0  0
   -2.4580    8.8330   -7.2210 C   0  0  0  0  0  0  0  0  0  0  0  0
  1  2  1  0
  2  3  2  0
  1  4  2  0
  1  5  1  0
  2  6  1  0
  5  7  1  0
  5  8  1  0
  6  9  1  0
  7 10  1  0
  8 11  1  0
  9 12  2  0
  9 13  1  0
 10 14  1  0
 11 14  1  0
 14 15  1  0
 12 16  1  0
 13 17  2  0
 16 17  1  0
 13 18  1  0
 15 19  1  0
 15 20  2  0
 17 21  1  0
 18 22  2  0
 21 23  2  0
 22 23  1  0
M  END
