mac-x0394-mac-x0212
     RDKit          3D

 23 25  0  0  0  0  0  0  0  0999 V2000
    1.0230   18.4170   -5.8250 Cl  0  0  0  0  0  0  0  0  0  0  0  0
    0.4110   17.2810   -4.6100 C   0  0  1  0  0  0  0  0  0  0  0  0
   -0.9600   16.7510   -5.0560 C   0  0  0  0  0  0  0  0  0  0  0  0
    1.2890   16.0330   -4.5150 C   0  0  0  0  0  0  0  0  0  0  0  0
    0.3030   15.0620   -3.9430 C   0  0  1  0  0  0  0  0  0  0  0  0
   -0.8470   15.2210   -4.8950 C   0  0  1  0  0  0  0  0  0  0  0  0
   -2.0890   14.5670   -4.3390 C   0  0  0  0  0  0  0  0  0  0  0  0
    0.7040   13.6380   -3.6630 C   0  0  0  0  0  0  0  0  0  0  0  0
   -0.3930   12.9970   -2.8220 C   0  0  0  0  0  0  0  0  0  0  0  0
   -1.8560   13.6560   -3.0830 C   0  0  1  0  0  0  0  0  0  0  0  0
   -0.3910   11.5940   -3.0490 O   0  0  0  0  0  0  0  0  0  0  0  0
    0.0240   13.0910   -1.4500 O   0  0  0  0  0  0  0  0  0  0  0  0
   -2.7620   14.1250   -1.9320 C   0  0  0  0  0  0  0  0  0  0  0  0
   -2.4650   13.7840   -0.6020 C   0  0  0  0  0  0  0  0  0  0  0  0
   -3.9270   14.8890   -2.1610 C   0  0  0  0  0  0  0  0  0  0  0  0
   -3.3110   14.1630    0.4460 C   0  0  0  0  0  0  0  0  0  0  0  0
   -4.7730   15.2670   -1.1130 C   0  0  0  0  0  0  0  0  0  0  0  0
   -4.4710   14.8880    0.1910 C   0  0  0  0  0  0  0  0  0  0  0  0
   -5.3200   15.1970    1.2910 N   0  0  0  0  0  0  0  0  0  0  0  0
   -6.8570   14.4970    1.1660 S   0  0  0  0  0  0  0  0  0  0  0  0
   -6.4730   12.7780    1.4650 C   0  0  0  0  0  0  0  0  0  0  0  0
   -7.7300   14.9740    2.2160 O   0  0  0  0  0  0  0  0  0  0  0  0
   -7.2530   14.6270   -0.2230 O   0  0  0  0  0  0  0  0  0  0  0  0
  2  1  1  6
  2  3  1  0
  2  4  1  0
  5  4  1  6
  6  3  1  1
  5  6  1  0
  6  7  1  0
  5  8  1  0
  8  9  1  0
  7 10  1  0
  9 10  1  0
  9 11  1  0
  9 12  1  0
 10 13  1  1
 13 14  2  0
 13 15  1  0
 14 16  1  0
 15 17  2  0
 16 18  2  0
 17 18  1  0
 18 19  1  0
 20 19  1  0
 20 21  1  0
 20 22  2  0
 20 23  2  0
M  END
