mac-x0387-mac-x0306
     RDKit          3D

 20 23  0  0  0  0  0  0  0  0999 V2000
   -3.3710   14.8440    1.9750 N   0  0  0  0  0  0  0  0  0  0  0  0
   -2.2420   14.7670    1.2070 C   0  0  0  0  0  0  0  0  0  0  0  0
   -1.1670   14.7120    1.9190 N   0  0  0  0  0  0  0  0  0  0  0  0
   -2.2650   14.7640   -0.1800 C   0  0  0  0  0  0  0  0  0  0  0  0
   -1.0480   14.7220   -0.8540 C   0  0  0  0  0  0  0  0  0  0  0  0
   -0.0350   14.6740    1.2820 C   0  0  0  0  0  0  0  0  0  0  0  0
   -3.4520   14.8030   -0.8940 C   0  0  0  0  0  0  0  0  0  0  0  0
    0.1150   14.6750   -0.0930 C   0  0  0  0  0  0  0  0  0  0  0  0
   -1.0380   14.7340   -2.2600 C   0  0  0  0  0  0  0  0  0  0  0  0
   -3.4730   14.8260   -2.2840 C   0  0  0  0  0  0  0  0  0  0  0  0
   -4.6420   14.8100   -0.2000 C   0  0  0  0  0  0  0  0  0  0  0  0
   -2.2520   14.7920   -2.9760 C   0  0  0  0  0  0  0  0  0  0  0  0
   -4.7170   14.8760   -2.9210 C   0  0  0  0  0  0  0  0  0  0  0  0
   -5.8660   14.8350   -0.7720 C   0  0  0  0  0  0  0  0  0  0  0  0
   -6.9770   14.7960    0.1800 C   0  0  0  0  0  0  0  0  0  0  0  0
   -5.9150   14.8820   -2.1720 C   0  0  0  0  0  0  0  0  0  0  0  0
   -6.8460   14.5710    1.5560 N   0  0  0  0  0  0  0  0  0  0  0  0
   -8.2480   14.9560   -0.1130 N   0  0  0  0  0  0  0  0  0  0  0  0
   -8.9390   14.8390    1.0610 C   0  0  0  0  0  0  0  0  0  0  0  0
   -8.0890   14.6010    2.1070 C   0  0  0  0  0  0  0  0  0  0  0  0
  1  2  1  0
  2  3  2  0
  2  4  1  0
  4  5  2  0
  3  6  1  0
  4  7  1  0
  5  8  1  0
  6  8  2  0
  5  9  1  0
  7 10  2  0
  7 11  1  0
  9 12  2  0
 10 12  1  0
 10 13  1  0
 11 14  2  0
 14 15  1  0
 13 16  2  0
 14 16  1  0
 15 17  1  0
 15 18  2  0
 18 19  1  0
 17 20  1  0
 19 20  2  0
M  END
