mac-x0224-mac-x0212
     RDKit          3D

 17 18  0  0  0  0  0  0  0  0999 V2000
   -5.0190   15.3800    1.3080 C   0  0  0  0  0  0  0  0  0  0  0  0
   -3.3470   14.6660    1.3340 S   0  0  0  0  0  0  0  0  0  0  0  0
   -2.9600   14.7390   -0.3890 C   0  0  0  0  0  0  0  0  0  0  0  0
   -6.5320   14.4030    1.0410 S   0  0  0  0  0  0  0  0  0  0  0  0
   -6.0270   12.7330    1.3720 C   0  0  0  0  0  0  0  0  0  0  0  0
   -7.5250   14.7590    2.0470 O   0  0  0  0  0  0  0  0  0  0  0  0
   -6.9210   14.4770   -0.3570 O   0  0  0  0  0  0  0  0  0  0  0  0
   -1.6540   14.4530   -0.7500 C   0  0  0  0  0  0  0  0  0  0  0  0
   -3.9320   15.0660   -1.3630 C   0  0  0  0  0  0  0  0  0  0  0  0
   -1.3310   14.4870   -2.0830 C   0  0  0  0  0  0  0  0  0  0  0  0
   -3.5880   15.0960   -2.7200 C   0  0  0  0  0  0  0  0  0  0  0  0
   -0.0470   14.2250   -2.7530 C   0  0  0  0  0  0  0  0  0  0  0  0
   -2.2830   14.7970   -3.0460 C   0  0  0  0  0  0  0  0  0  0  0  0
   -1.7770   14.7630   -4.3120 O   0  0  0  0  0  0  0  0  0  0  0  0
    0.7190   13.2520   -2.0850 O   0  0  0  0  0  0  0  0  0  0  0  0
    0.7440   15.3730   -2.9000 O   0  0  0  0  0  0  0  0  0  0  0  0
   -0.6800   13.8360   -4.0930 C   0  0  0  0  0  0  0  0  0  0  0  0
  1  2  1  0
  2  3  1  0
  4  1  1  0
  4  5  1  0
  4  6  2  0
  4  7  2  0
  3  8  2  0
  3  9  1  0
  8 10  1  0
  9 11  2  0
 10 12  1  0
 10 13  2  0
 11 13  1  0
 13 14  1  0
 12 15  1  0
 12 16  1  0
 12 17  1  0
 14 17  1  0
M  END
