mac-x0433-mac-x0587
     RDKit          3D

 26 27  0  0  0  0  0  0  0  0999 V2000
   -3.6830   15.8630    1.0720 C   0  0  0  0  0  0  0  0  0  0  0  0
   -4.8730   15.3650    0.3140 C   0  0  0  0  0  0  0  0  0  0  0  0
   -5.9590   14.8880    0.9980 C   0  0  0  0  0  0  0  0  0  0  0  0
   -4.8370   15.3990   -1.0240 N   0  0  0  0  0  0  0  0  0  0  0  0
   -5.8990   14.9550   -1.6970 C   0  0  0  0  0  0  0  0  0  0  0  0
   -7.0190   14.4580    0.2310 C   0  0  0  0  0  0  0  0  0  0  0  0
   -8.2460   13.9390    0.9080 C   0  0  0  0  0  0  0  0  0  0  0  0
   -5.7740   15.0100   -3.0770 N   0  0  0  0  0  0  0  0  0  0  0  0
   -7.0070   14.4850   -1.1140 N   0  0  0  0  0  0  0  0  0  0  0  0
   -4.8070   14.0590   -3.6460 C   0  0  0  0  0  0  0  0  0  0  0  0
   -4.0330   14.6640   -4.8430 C   0  0  0  0  0  0  0  0  0  0  0  0
   -2.5950   14.7730   -4.6220 N   0  0  0  0  0  0  0  0  0  0  0  0
   -1.7880   14.8200   -3.6130 C   0  0  0  0  0  0  0  0  0  0  0  0
   -0.2750   14.9310   -3.9930 C   0  0  2  0  0  0  0  0  0  0  0  0
   -2.0540   14.7780   -2.2390 N   0  0  0  0  0  0  0  0  0  0  0  0
    0.1280   16.2670   -4.6220 C   0  0  0  0  0  0  0  0  0  0  0  0
    0.0740   13.5760   -5.2080 S   0  0  0  0  0  0  0  0  0  0  0  0
   -3.3470   14.6200   -1.6340 C   0  0  0  0  0  0  0  0  0  0  0  0
   -1.1200   14.7110   -1.1580 C   0  0  0  0  0  0  0  0  0  0  0  0
   -0.5230   12.1590   -4.2160 C   0  0  0  0  0  0  0  0  0  0  0  0
    0.0560   15.0140   -1.1260 O   0  0  0  0  0  0  0  0  0  0  0  0
   -3.0780   13.7870   -0.3970 C   0  0  0  0  0  0  0  0  0  0  0  0
   -1.7740   14.2240   -0.0360 N   0  0  0  0  0  0  0  0  0  0  0  0
    0.5370   11.5990   -3.2840 C   0  0  0  0  0  0  0  0  0  0  0  0
    0.4530   10.4820   -2.7950 O   0  0  0  0  0  0  0  0  0  0  0  0
    1.5870   12.4130   -3.0170 O   0  0  0  0  0  0  0  0  0  0  0  0
  1  2  1  0
  2  3  2  0
  2  4  1  0
  4  5  2  0
  3  6  1  0
  6  7  1  0
  5  8  1  0
  5  9  1  0
  6  9  2  0
  8 10  1  0
 10 11  1  0
 11 12  1  0
 12 13  2  3
 13 14  1  0
 13 15  1  0
 14 16  1  6
 14 17  1  0
 15 18  1  0
 15 19  1  0
 17 20  1  0
 19 21  2  0
 18 22  1  0
 19 23  1  0
 22 23  1  0
 20 24  1  0
 24 25  2  0
 24 26  1  0
M  END
