mac-x0224-mac-x0404
     RDKit          3D

 25 28  0  0  0  0  0  0  0  0999 V2000
   -5.1770   14.9770    1.4170 C   0  0  0  0  0  0  0  0  0  0  0  0
   -3.4060   15.3190    1.5520 S   0  0  0  0  0  0  0  0  0  0  0  0
   -3.0010   15.0910   -0.1400 C   0  0  0  0  0  0  0  0  0  0  0  0
   -1.8130   14.4670   -0.5260 C   0  0  0  0  0  0  0  0  0  0  0  0
   -3.9230   15.5570   -1.0840 C   0  0  0  0  0  0  0  0  0  0  0  0
   -1.5640   14.3080   -1.8740 C   0  0  0  0  0  0  0  0  0  0  0  0
   -3.6650   15.4010   -2.4200 C   0  0  0  0  0  0  0  0  0  0  0  0
   -0.3870   13.6310   -2.4480 C   0  0  0  0  0  0  0  0  0  0  0  0
   -2.5040   14.7850   -2.7970 C   0  0  0  0  0  0  0  0  0  0  0  0
   -2.3530   14.6690   -4.1310 O   0  0  0  0  0  0  0  0  0  0  0  0
   -0.1540   12.4650   -2.0060 N   0  0  0  0  0  0  0  0  0  0  0  0
    0.3580   14.0680   -3.5100 N   0  0  0  0  0  0  0  0  0  0  0  0
    0.7340   11.9310   -2.8750 C   0  0  0  0  0  0  0  0  0  0  0  0
    1.1570   12.9230   -3.9750 C   0  0  0  0  0  0  0  0  0  0  0  0
   -0.5220   14.7450   -4.3420 C   0  0  0  0  0  0  0  0  0  0  0  0
    1.0240   10.7820   -2.7870 O   0  0  0  0  0  0  0  0  0  0  0  0
   -0.3940   16.0730   -4.7970 C   0  0  0  0  0  0  0  0  0  0  0  0
   -1.6510   13.9770   -4.6710 C   0  0  0  0  0  0  0  0  0  0  0  0
   -1.4700   16.6040   -5.5540 C   0  0  0  0  0  0  0  0  0  0  0  0
   -2.6910   14.5080   -5.4220 C   0  0  0  0  0  0  0  0  0  0  0  0
    0.7120   16.9100   -4.5500 C   0  0  0  0  0  0  0  0  0  0  0  0
   -2.6030   15.8240   -5.8470 C   0  0  0  0  0  0  0  0  0  0  0  0
   -1.4130   17.9130   -6.0230 C   0  0  0  0  0  0  0  0  0  0  0  0
    0.7570   18.2060   -5.0340 C   0  0  0  0  0  0  0  0  0  0  0  0
   -0.3090   18.7070   -5.7710 C   0  0  0  0  0  0  0  0  0  0  0  0
  1  2  1  0
  2  3  1  0
  3  4  2  0
  3  5  1  0
  4  6  1  0
  5  7  2  0
  6  8  1  0
  6  9  2  0
  7  9  1  0
  9 10  1  0
  8 11  2  0
  8 12  1  0
 11 13  1  0
 12 14  1  0
 13 14  1  0
 12 15  1  0
 13 16  2  0
 15 17  1  0
 15 18  2  0
 17 19  2  0
 18 20  1  0
 17 21  1  0
 19 22  1  0
 20 22  2  0
 19 23  1  0
 21 24  2  0
 23 25  2  0
 24 25  1  0
M  END
