mac-x0346-mac-x0161
     RDKit          3D

 23 25  0  0  0  0  0  0  0  0999 V2000
   -7.4140   14.7200    1.4100 O   0  0  0  0  0  0  0  0  0  0  0  0
   -7.4280   14.2280    0.0840 N   0  0  0  0  0  0  0  0  0  0  0  0
   -6.5050   14.7670   -0.8000 C   0  0  0  0  0  0  0  0  0  0  0  0
   -6.8760   15.4060   -1.7860 O   0  0  0  0  0  0  0  0  0  0  0  0
   -5.0110   14.5060   -0.5250 C   0  0  1  0  0  0  0  0  0  0  0  0
   -4.1980   15.3050   -1.5700 C   0  0  2  0  0  0  0  0  0  0  0  0
   -4.5910   14.7950    0.8910 C   0  0  0  0  0  0  0  0  0  0  0  0
   -4.4470   14.7870   -2.8820 O   0  0  0  0  0  0  0  0  0  0  0  0
   -2.6490   15.4460   -1.3360 C   0  0  2  0  0  0  0  0  0  0  0  0
   -3.3000   15.0130    1.1720 C   0  0  0  0  0  0  0  0  0  0  0  0
   -1.6910   15.1290   -2.5870 C   0  0  0  0  0  0  0  0  0  0  0  0
   -2.2010   15.0000    0.1060 C   0  0  2  0  0  0  0  0  0  0  0  0
   -1.2480   13.7420   -3.0610 C   0  0  0  0  0  0  0  0  0  0  0  0
   -1.1620   15.9200    0.6760 N   0  0  0  0  0  0  0  0  0  0  0  0
   -1.3530   13.7380   -0.0020 C   0  0  0  0  0  0  0  0  0  0  0  0
   -1.5740   12.9490   -4.1630 C   0  0  0  0  0  0  0  0  0  0  0  0
   -0.3230   13.0480   -2.3130 O   0  0  0  0  0  0  0  0  0  0  0  0
   -0.0590   14.2980   -0.3290 N   0  0  0  0  0  0  0  0  0  0  0  0
    0.0380   15.1110    0.8350 C   0  0  0  0  0  0  0  0  0  0  0  0
   -0.0400   11.8110   -2.9020 N   0  0  0  0  0  0  0  0  0  0  0  0
   -0.7940   11.7720   -4.0050 C   0  0  0  0  0  0  0  0  0  0  0  0
   -0.7690   10.6940   -4.8380 O   0  0  0  0  0  0  0  0  0  0  0  0
   -1.7960   10.6550   -5.8360 C   0  0  0  0  0  0  0  0  0  0  0  0
  1  2  1  0
  2  3  1  0
  3  4  2  0
  5  3  1  1
  5  6  1  0
  5  7  1  0
  6  8  1  6
  6  9  1  0
  7 10  2  0
  9 11  1  6
  9 12  1  0
 12 10  1  1
 11 13  1  0
 12 14  1  0
 12 15  1  0
 13 16  2  0
 13 17  1  0
 15 18  1  0
 14 19  1  0
 18 19  1  0
 17 20  1  0
 16 21  1  0
 20 21  2  0
 21 22  1  0
 22 23  1  0
M  END
