mac-x0588-diamond-x1015_0_A
     RDKit          3D

 30 34  0  0  0  0  0  0  0  0999 V2000
   -4.6770   14.9230    0.9650 N   0  0  0  0  0  0  0  0  0  0  0  0
   -3.6520   15.5630    0.1770 C   0  0  1  0  0  0  0  0  0  0  0  0
   -2.3040   14.8320    0.1820 C   0  0  1  0  0  0  0  0  0  0  0  0
   -4.2060   15.6420   -1.1590 N   0  0  0  0  0  0  0  0  0  0  0  0
   -3.4910   14.8230   -2.1360 C   0  0  0  0  0  0  0  0  0  0  0  0
   -1.4840   15.4360   -0.9510 C   0  0  2  0  0  0  0  0  0  0  0  0
   -1.4300   15.0590    1.3310 N   0  0  0  0  0  0  0  0  0  0  0  0
   -2.1120   15.2500   -2.2860 N   0  0  0  0  0  0  0  0  0  0  0  0
   -0.2610   14.7020   -0.6850 N   0  0  0  0  0  0  0  0  0  0  0  0
   -0.1220   14.7420    0.7750 C   0  0  0  0  0  0  0  0  0  0  0  0
   -1.3560   14.6940   -3.4660 C   0  0  1  0  0  0  0  0  0  0  0  0
   -0.6840   15.7230   -4.4560 C   0  0  1  0  0  0  0  0  0  0  0  0
   -0.6030   13.3990   -2.9830 C   0  0  1  0  0  0  0  0  0  0  0  0
   -1.5410   16.8880   -4.5990 O   0  0  0  0  0  0  0  0  0  0  0  0
    0.7010   16.3010   -4.2420 C   0  0  0  0  0  0  0  0  0  0  0  0
   -0.0190   12.2980   -3.7960 N   0  0  0  0  0  0  0  0  0  0  0  0
    0.7630   13.7180   -2.3870 C   0  0  0  0  0  0  0  0  0  0  0  0
    1.2280   14.8210   -2.1380 O   0  0  0  0  0  0  0  0  0  0  0  0
    0.6890   17.4960   -5.1750 C   0  0  0  0  0  0  0  0  0  0  0  0
   -0.7490   17.9730   -5.0950 C   0  0  0  0  0  0  0  0  0  0  0  0
    0.6130   11.6090   -2.7710 C   0  0  0  0  0  0  0  0  0  0  0  0
    1.3920   12.5400   -2.1820 N   0  0  0  0  0  0  0  0  0  0  0  0
   -0.5060   11.5620   -4.9220 C   0  0  0  0  0  0  0  0  0  0  0  0
    0.5030   10.4330   -2.4130 O   0  0  0  0  0  0  0  0  0  0  0  0
    0.0230   11.7790   -6.2100 C   0  0  0  0  0  0  0  0  0  0  0  0
   -1.5000   10.5880   -4.7790 C   0  0  0  0  0  0  0  0  0  0  0  0
   -0.4260   11.0410   -7.3120 C   0  0  0  0  0  0  0  0  0  0  0  0
   -1.9540    9.8450   -5.8780 C   0  0  0  0  0  0  0  0  0  0  0  0
   -1.4140   10.0720   -7.1390 C   0  0  0  0  0  0  0  0  0  0  0  0
   -1.9650    9.1550   -8.4870 Cl  0  0  0  0  0  0  0  0  0  0  0  0
  2  1  1  1
  2  3  1  0
  2  4  1  0
  4  5  1  0
  3  6  1  0
  3  7  1  1
  5  8  1  0
  6  8  1  0
  6  9  1  6
  7 10  1  0
  9 10  1  0
 11  8  1  1
 11 12  1  0
 11 13  1  0
 12 14  1  0
 12 15  1  1
 13 16  1  0
 13 17  1  6
 17 18  2  0
 15 19  1  0
 14 20  1  0
 19 20  1  0
 16 21  1  0
 17 22  1  0
 21 22  1  0
 16 23  1  0
 21 24  2  0
 23 25  2  0
 23 26  1  0
 25 27  1  0
 26 28  2  0
 27 29  2  0
 28 29  1  0
 29 30  1  0
M  END
