mac-x0337-diamond-x0685_0_A
     RDKit          3D

 21 22  0  0  0  0  0  0  0  0999 V2000
   -6.1180    9.2010   -2.0790 C   0  0  0  0  0  0  0  0  0  0  0  0
   -5.2820   10.4060   -1.8960 C   0  0  0  0  0  0  0  0  0  0  0  0
   -5.6900   11.3560   -1.0070 C   0  0  0  0  0  0  0  0  0  0  0  0
   -4.1180   10.6040   -2.5740 C   0  0  0  0  0  0  0  0  0  0  0  0
   -3.3680   11.7350   -2.3720 C   0  0  0  0  0  0  0  0  0  0  0  0
   -4.9230   12.4710   -0.8250 C   0  0  0  0  0  0  0  0  0  0  0  0
   -3.7110   12.7410   -1.4930 C   0  0  0  0  0  0  0  0  0  0  0  0
   -2.7570   14.1240   -1.2720 S   0  0  0  0  0  0  0  0  0  0  0  0
   -3.6310   15.4930   -1.8790 N   0  0  0  0  0  0  0  0  0  0  0  0
   -1.4570   14.2720   -0.5050 O   0  0  0  0  0  0  0  0  0  0  0  0
   -3.5400   14.5100    0.0160 N   0  0  0  0  0  0  0  0  0  0  0  0
   -3.8950   15.3960   -3.1940 N   0  0  0  0  0  0  0  0  0  0  0  0
   -4.4140   15.3760   -0.7590 C   0  0  0  0  0  0  0  0  0  0  0  0
   -3.8270   15.5660    0.4730 C   0  0  0  0  0  0  0  0  0  0  0  0
   -5.7520   15.0350   -0.8020 C   0  0  0  0  0  0  0  0  0  0  0  0
   -4.5460   15.4070    1.6090 C   0  0  0  0  0  0  0  0  0  0  0  0
   -6.4700   14.8750    0.3110 N   0  0  0  0  0  0  0  0  0  0  0  0
   -5.8660   15.0550    1.5240 C   0  0  0  0  0  0  0  0  0  0  0  0
   -6.5820   14.9010    2.7210 N   0  0  0  0  0  0  0  0  0  0  0  0
   -7.9900   14.8380    2.7570 C   0  0  0  0  0  0  0  0  0  0  0  0
   -8.4200   13.4120    3.0550 C   0  0  0  0  0  0  0  0  0  0  0  0
  1  2  1  0
  2  3  2  0
  2  4  1  0
  4  5  2  0
  3  6  1  0
  5  7  1  0
  6  7  2  0
  7  8  1  0
  8  9  1  0
  8 10  2  0
  8 11  1  0
  9 12  1  0
  9 13  1  0
 13 14  2  0
 13 15  1  0
 14 16  1  0
 15 17  2  0
 16 18  2  0
 17 18  1  0
 18 19  1  0
 19 20  1  0
 20 21  1  0
M  END
