mac-x0283-mac-x0213
     RDKit          3D

 25 28  0  0  0  0  0  0  0  0999 V2000
   -6.8010   14.6080    2.4230 N   0  0  0  0  0  0  0  0  0  0  0  0
   -6.6170   14.7330    1.0960 C   0  0  0  0  0  0  0  0  0  0  0  0
   -7.6020   14.6510    0.2020 N   0  0  0  0  0  0  0  0  0  0  0  0
   -5.3540   14.9780    0.4740 C   0  0  0  0  0  0  0  0  0  0  0  0
   -7.0060   14.8430   -1.0320 O   0  0  0  0  0  0  0  0  0  0  0  0
   -5.6700   15.0390   -0.8710 C   0  0  0  0  0  0  0  0  0  0  0  0
   -4.0090   15.1570    0.8650 C   0  0  0  0  0  0  0  0  0  0  0  0
   -4.7430   15.2680   -1.8840 C   0  0  0  0  0  0  0  0  0  0  0  0
   -3.0320   15.3910   -0.1300 C   0  0  0  0  0  0  0  0  0  0  0  0
   -1.5760   15.5850    0.2510 C   0  0  0  0  0  0  0  0  0  0  0  0
   -3.4120   15.4440   -1.4820 C   0  0  0  0  0  0  0  0  0  0  0  0
   -0.7690   14.2890    0.2590 C   0  0  0  0  0  0  0  0  0  0  0  0
    0.2390   14.2620   -0.8870 C   0  0  0  0  0  0  0  0  0  0  0  0
    0.3150   12.8990   -1.3930 N   0  0  0  0  0  0  0  0  0  0  0  0
    0.2670   12.6520   -2.6600 C   0  0  0  0  0  0  0  0  0  0  0  0
    0.3330   11.3730   -3.0770 O   0  0  0  0  0  0  0  0  0  0  0  0
    0.1240   13.6750   -3.8110 C   0  0  0  0  0  0  0  0  0  0  0  0
   -1.3460   14.1520   -3.9220 C   0  0  0  0  0  0  0  0  0  0  0  0
    0.9850   14.9650   -3.7110 C   0  0  0  0  0  0  0  0  0  0  0  0
   -1.2130   15.5360   -4.4870 C   0  0  0  0  0  0  0  0  0  0  0  0
    0.1010   15.9970   -4.3690 C   0  0  0  0  0  0  0  0  0  0  0  0
   -2.2010   16.3240   -5.0680 C   0  0  0  0  0  0  0  0  0  0  0  0
    0.4490   17.2610   -4.8270 C   0  0  0  0  0  0  0  0  0  0  0  0
   -1.8540   17.5950   -5.5330 C   0  0  0  0  0  0  0  0  0  0  0  0
   -0.5370   18.0590   -5.4120 C   0  0  0  0  0  0  0  0  0  0  0  0
  1  2  1  0
  2  3  2  0
  2  4  1  0
  3  5  1  0
  4  6  2  0
  5  6  1  0
  4  7  1  0
  6  8  1  0
  7  9  2  0
  9 10  1  0
  8 11  2  0
  9 11  1  0
 10 12  1  0
 12 13  1  0
 13 14  1  0
 14 15  2  3
 15 16  1  0
 15 17  1  0
 17 18  1  0
 17 19  1  0
 18 20  1  0
 19 21  1  0
 20 21  2  0
 20 22  1  0
 21 23  1  0
 22 24  2  0
 23 25  2  0
 24 25  1  0
M  END
