mac-x0412-mac-x1494
     RDKit          3D

 17 19  0  0  0  0  0  0  0  0999 V2000
   -8.3730   14.8370   -0.2150 O   0  0  0  0  0  0  0  0  0  0  0  0
   -7.2690   14.7640    0.3130 C   0  0  0  0  0  0  0  0  0  0  0  0
   -7.1560   14.6390    1.6630 N   0  0  0  0  0  0  0  0  0  0  0  0
   -5.9620   14.8100   -0.4600 C   0  0  1  0  0  0  0  0  0  0  0  0
   -4.7880   15.4730    0.3090 C   0  0  1  0  0  0  0  0  0  0  0  0
   -6.0300   14.9160    2.3740 C   0  0  0  0  0  0  0  0  0  0  0  0
   -5.6130   13.4540   -1.0250 C   0  0  0  0  0  0  0  0  0  0  0  0
   -4.8880   15.3020    1.7890 C   0  0  0  0  0  0  0  0  0  0  0  0
   -3.4430   15.0000   -0.2400 C   0  0  0  0  0  0  0  0  0  0  0  0
   -4.4570   13.2900   -1.6360 C   0  0  0  0  0  0  0  0  0  0  0  0
   -2.4330   15.0230    0.4540 O   0  0  0  0  0  0  0  0  0  0  0  0
   -3.6490   14.4990   -1.6940 C   0  0  2  0  0  0  0  0  0  0  0  0
   -2.8450   14.8900   -2.9920 C   0  0  1  0  0  0  0  0  0  0  0  0
   -4.8230   15.4130   -1.9770 C   0  0  0  0  0  0  0  0  0  0  0  0
   -1.5440   13.8450   -3.6340 Cl  0  0  0  0  0  0  0  0  0  0  0  0
   -5.1200   15.0140   -3.3630 C   0  0  0  0  0  0  0  0  0  0  0  0
   -3.9740   14.7220   -3.9660 C   0  0  0  0  0  0  0  0  0  0  0  0
  1  2  2  0
  2  3  1  0
  2  4  1  0
  4  5  1  0
  3  6  1  0
  4  7  1  1
  5  8  1  1
  6  8  2  0
  5  9  1  0
  7 10  2  0
  9 11  2  0
 12  9  1  0
 12 10  1  1
 12 13  1  0
 12 14  1  0
 13 15  1  6
 14 16  1  0
 13 17  1  0
 16 17  2  0
M  END
