mac-x0204-diamond-x0574_0_A
     RDKit          3D

 25 27  0  0  0  0  0  0  0  0999 V2000
    0.1280   12.6800   -2.5010 O   0  0  0  0  0  0  0  0  0  0  0  0
    0.1850   13.7440   -3.3250 C   0  0  0  0  0  0  0  0  0  0  0  0
    1.1970   14.4990   -3.3810 N   0  0  0  0  0  0  0  0  0  0  0  0
   -1.0010   13.9300   -4.1360 C   0  0  0  0  0  0  0  0  0  0  0  0
    2.1940   14.0890   -2.4360 C   0  0  0  0  0  0  0  0  0  0  0  0
   -1.3400   15.1990   -4.5950 C   0  0  0  0  0  0  0  0  0  0  0  0
   -1.7990   12.8500   -4.4560 C   0  0  0  0  0  0  0  0  0  0  0  0
    1.6330   14.6620   -1.1630 C   0  0  0  0  0  0  0  0  0  0  0  0
   -2.4820   15.3270   -5.3730 C   0  0  0  0  0  0  0  0  0  0  0  0
   -2.9140   12.9470   -5.2080 N   0  0  0  0  0  0  0  0  0  0  0  0
   -2.8720   16.5330   -5.8640 O   0  0  0  0  0  0  0  0  0  0  0  0
    0.5850   13.7590   -0.5380 C   0  0  0  0  0  0  0  0  0  0  0  0
   -3.2300   14.1880   -5.6500 C   0  0  0  0  0  0  0  0  0  0  0  0
    0.1770   14.0820    0.8310 N   0  0  0  0  0  0  0  0  0  0  0  0
   -1.0860   14.3330    0.7120 C   0  0  0  0  0  0  0  0  0  0  0  0
   -2.0070   14.3420    1.6320 N   0  0  0  0  0  0  0  0  0  0  0  0
   -1.5360   14.6540   -0.8940 S   0  0  0  0  0  0  0  0  0  0  0  0
   -3.2090   14.5970    0.9650 C   0  0  0  0  0  0  0  0  0  0  0  0
   -3.1260   14.8010   -0.4110 C   0  0  0  0  0  0  0  0  0  0  0  0
   -4.4830   14.6630    1.5200 C   0  0  0  0  0  0  0  0  0  0  0  0
   -4.2100   15.0730   -1.2330 C   0  0  0  0  0  0  0  0  0  0  0  0
   -5.5930   14.9120    0.7210 C   0  0  0  0  0  0  0  0  0  0  0  0
   -5.4530   15.1230   -0.6400 C   0  0  0  0  0  0  0  0  0  0  0  0
   -6.8760   14.9680    1.1710 O   0  0  0  0  0  0  0  0  0  0  0  0
   -7.0610   14.6740    2.5500 C   0  0  0  0  0  0  0  0  0  0  0  0
  1  2  1  0
  2  3  2  3
  2  4  1  0
  3  5  1  0
  4  6  2  0
  4  7  1  0
  5  8  1  0
  6  9  1  0
  7 10  2  0
  9 11  1  0
  8 12  1  0
  9 13  2  0
 10 13  1  0
 12 14  1  0
 14 15  1  0
 15 16  2  0
 15 17  1  0
 16 18  1  0
 17 19  1  0
 18 19  2  0
 18 20  1  0
 19 21  1  0
 20 22  2  0
 21 23  2  0
 22 23  1  0
 22 24  1  0
 24 25  1  0
M  END
