mac-x0587-mac-x0179
     RDKit          3D

 25 27  0  0  0  0  0  0  0  0999 V2000
   -0.4220   15.2950   -4.6980 C   0  0  0  0  0  0  0  0  0  0  0  0
   -1.2670   14.7300   -3.5460 C   0  0  2  0  0  0  0  0  0  0  0  0
   -2.1970   13.2160   -4.0080 S   0  0  0  0  0  0  0  0  0  0  0  0
   -2.3700   15.6770   -3.1770 C   0  0  0  0  0  0  0  0  0  0  0  0
   -0.8770   12.2210   -4.3520 C   0  0  0  0  0  0  0  0  0  0  0  0
   -2.9520   16.3400   -4.0370 O   0  0  0  0  0  0  0  0  0  0  0  0
   -2.6970   15.7170   -1.8410 N   0  0  0  0  0  0  0  0  0  0  0  0
    0.3380   12.3120   -3.4820 C   0  0  0  0  0  0  0  0  0  0  0  0
   -4.0420   15.3330   -1.4620 C   0  0  0  0  0  0  0  0  0  0  0  0
   -1.8480   15.3820   -0.7630 C   0  0  0  0  0  0  0  0  0  0  0  0
   -0.7790   11.3320   -5.2900 C   0  0  0  0  0  0  0  0  0  0  0  0
    0.8550   11.3350   -2.9530 O   0  0  0  0  0  0  0  0  0  0  0  0
    0.8460   13.5310   -3.2910 O   0  0  0  0  0  0  0  0  0  0  0  0
   -0.6330   15.3270   -0.7460 O   0  0  0  0  0  0  0  0  0  0  0  0
   -4.0120   15.3420    0.0490 C   0  0  0  0  0  0  0  0  0  0  0  0
   -2.6350   15.0940    0.3450 N   0  0  0  0  0  0  0  0  0  0  0  0
    0.4080   10.8880   -5.3290 N   0  0  0  0  0  0  0  0  0  0  0  0
   -1.3550   10.5550   -6.4200 C   0  0  0  0  0  0  0  0  0  0  0  0
    0.7940   11.1380   -6.6120 C   0  0  0  0  0  0  0  0  0  0  0  0
   -0.2640   10.4280   -7.2920 C   0  0  0  0  0  0  0  0  0  0  0  0
   -2.5510    9.9620   -6.7790 C   0  0  0  0  0  0  0  0  0  0  0  0
    1.7350   11.7510   -7.0340 O   0  0  0  0  0  0  0  0  0  0  0  0
   -0.2660    9.7570   -8.4920 C   0  0  0  0  0  0  0  0  0  0  0  0
   -2.5960    9.2580   -8.0030 C   0  0  0  0  0  0  0  0  0  0  0  0
   -1.4680    9.1580   -8.8480 C   0  0  0  0  0  0  0  0  0  0  0  0
  2  1  1  6
  2  3  1  0
  2  4  1  0
  3  5  1  0
  4  6  2  0
  4  7  1  0
  5  8  1  0
  7  9  1  0
  7 10  1  0
  5 11  2  3
  8 12  2  0
  8 13  1  0
 10 14  2  0
  9 15  1  0
 10 16  1  0
 15 16  1  0
 11 17  1  0
 11 18  1  0
 17 19  1  0
 18 20  2  0
 19 20  1  0
 18 21  1  0
 19 22  2  0
 20 23  1  0
 21 24  2  0
 23 25  2  0
 24 25  1  0
M  END
