mac-x0385-diamond-x0681_0_A
     RDKit          3D

 20 22  0  0  0  0  0  0  0  0999 V2000
   -4.5210   15.6450   -1.1460 C   0  0  0  0  0  0  0  0  0  0  0  0
   -4.5530   14.2830   -1.7410 C   0  0  0  0  0  0  0  0  0  0  0  0
   -4.6730   14.0830   -2.9540 O   0  0  0  0  0  0  0  0  0  0  0  0
   -3.3750   15.3450   -0.2990 C   0  0  0  0  0  0  0  0  0  0  0  0
   -3.2320   15.4760    1.0810 C   0  0  0  0  0  0  0  0  0  0  0  0
   -2.3070   14.8330   -1.0020 C   0  0  0  0  0  0  0  0  0  0  0  0
   -4.3480   13.2020   -0.6850 C   0  0  2  0  0  0  0  0  0  0  0  0
   -4.2120   15.9690    1.9460 N   0  0  0  0  0  0  0  0  0  0  0  0
   -2.1020   15.1060    1.6610 N   0  0  0  0  0  0  0  0  0  0  0  0
   -1.1790   14.4640   -0.4430 N   0  0  0  0  0  0  0  0  0  0  0  0
   -5.5150   12.3190   -0.6640 C   0  0  0  0  0  0  0  0  0  0  0  0
   -4.1760   13.8060    0.7180 C   0  0  0  0  0  0  0  0  0  0  0  0
   -1.1540   14.6220    0.8750 C   0  0  0  0  0  0  0  0  0  0  0  0
   -6.4780   12.3930    0.3100 N   0  0  0  0  0  0  0  0  0  0  0  0
   -5.4910   14.4290    1.1930 C   0  0  0  0  0  0  0  0  0  0  0  0
   -5.7890   11.3800   -1.5310 N   0  0  0  0  0  0  0  0  0  0  0  0
    0.0470   14.2120    1.5360 C   0  0  0  0  0  0  0  0  0  0  0  0
   -6.4900   13.3170    1.4190 C   0  0  0  0  0  0  0  0  0  0  0  0
   -7.4090   11.4490    0.0460 C   0  0  0  0  0  0  0  0  0  0  0  0
   -6.9640   10.8340   -1.0960 C   0  0  0  0  0  0  0  0  0  0  0  0
  1  2  1  0
  2  3  2  0
  1  4  1  0
  4  5  2  0
  4  6  1  0
  7  2  1  6
  5  8  1  0
  5  9  1  0
  6 10  2  0
  7 11  1  0
  7 12  1  0
  9 13  2  0
 10 13  1  0
 11 14  1  0
 12 15  1  0
 11 16  2  0
 13 17  1  0
 14 18  1  0
 15 18  1  0
 14 19  1  0
 16 20  1  0
 19 20  2  0
M  END
