mac-x0402-diamond-x0844_0_A
     RDKit          3D

 12 13  0  0  0  0  0  0  0  0999 V2000
   -1.7800   14.8090   -3.3520 Cl  0  0  0  0  0  0  0  0  0  0  0  0
   -3.1260   14.8500   -2.2790 C   0  0  0  0  0  0  0  0  0  0  0  0
   -4.4040   14.9580   -2.8110 C   0  0  0  0  0  0  0  0  0  0  0  0
   -2.9120   14.7720   -0.9010 C   0  0  0  0  0  0  0  0  0  0  0  0
   -4.0310   14.8030   -0.0510 C   0  0  0  0  0  0  0  0  0  0  0  0
   -5.5220   14.9870   -1.9830 C   0  0  0  0  0  0  0  0  0  0  0  0
   -5.3170   14.9060   -0.6070 C   0  0  0  0  0  0  0  0  0  0  0  0
   -3.9790   14.7210    1.6890 S   0  0  0  0  0  0  0  0  0  0  0  0
   -5.6920   14.8200    1.7160 C   0  0  0  0  0  0  0  0  0  0  0  0
   -6.2630   14.9100    0.3570 N   0  0  0  0  0  0  0  0  0  0  0  0
   -6.4860   14.8180    2.9780 N   0  0  0  0  0  0  0  0  0  0  0  0
   -7.5230   14.9820    0.2380 O   0  0  0  0  0  0  0  0  0  0  0  0
  1  2  1  0
  2  3  2  0
  2  4  1  0
  4  5  2  0
  3  6  1  0
  5  7  1  0
  6  7  2  0
  5  8  1  0
  8  9  1  0
  7 10  1  0
  9 10  2  0
  9 11  1  0
 10 12  1  0
M  CHG  2  10   1  12  -1
M  END
