mac-x0358-mac-x0584
     RDKit          3D

 22 25  0  0  0  0  0  0  0  0999 V2000
    2.4970   12.8300   -2.1730 O   0  0  0  0  0  0  0  0  0  0  0  0
    1.2190   13.1050   -2.5350 C   0  0  0  0  0  0  0  0  0  0  0  0
    0.6480   11.9200   -2.7100 O   0  0  0  0  0  0  0  0  0  0  0  0
    0.4560   14.2770   -2.7590 C   0  0  0  0  0  0  0  0  0  0  0  0
   -0.9160   14.2420   -3.3110 C   0  0  1  0  0  0  0  0  0  0  0  0
   -0.6800   13.0770   -4.6780 S   0  0  0  0  0  0  0  0  0  0  0  0
   -1.8720   13.8550   -2.3180 C   0  0  1  0  0  0  0  0  0  0  0  0
   -0.8190   11.4120   -3.6120 O   0  0  0  0  0  0  0  0  0  0  0  0
   -2.1130   14.1810   -4.9360 C   0  0  0  0  0  0  0  0  0  0  0  0
   -2.9580   13.0660   -3.1400 C   0  0  0  0  0  0  0  0  0  0  0  0
    1.1230   13.1860   -5.0060 C   0  0  0  0  0  0  0  0  0  0  0  0
    0.1030   12.9460   -6.2680 C   0  0  0  0  0  0  0  0  0  0  0  0
   -1.2090   13.1250   -1.2180 N   0  0  0  0  0  0  0  0  0  0  0  0
   -2.8110   14.5890   -1.2950 C   0  0  1  0  0  0  0  0  0  0  0  0
   -3.1290   14.1740   -4.2320 C   0  0  0  0  0  0  0  0  0  0  0  0
    1.0550   11.9230   -5.6040 C   0  0  0  0  0  0  0  0  0  0  0  0
   -0.3920   14.0220   -0.2980 C   0  0  0  0  0  0  0  0  0  0  0  0
   -2.5160   14.4680    0.2270 C   0  0  1  0  0  0  0  0  0  0  0  0
   -3.7390   15.5960   -1.4670 C   0  0  0  0  0  0  0  0  0  0  0  0
   -1.2350   14.8690    0.4630 N   0  0  0  0  0  0  0  0  0  0  0  0
   -3.6570   15.1690    0.8150 N   0  0  0  0  0  0  0  0  0  0  0  0
   -4.2460   15.9110   -0.2430 C   0  0  0  0  0  0  0  0  0  0  0  0
  1  2  1  0
  2  3  2  0
  2  4  1  0
  5  4  1  1
  5  6  1  0
  5  7  1  0
  6  8  1  0
  6  9  1  0
  7 10  1  6
  6 11  1  0
  6 12  1  0
  7 13  1  0
  7 14  1  0
  9 15  2  0
 10 15  1  0
 11 16  1  0
 12 16  1  0
 13 17  1  0
 14 18  1  0
 14 19  1  6
 17 20  1  0
 18 20  1  6
 18 21  1  0
 19 22  2  0
 21 22  1  0
M  END
