mac-x0115-mac-x0328
     RDKit          3D

 26 28  0  0  0  0  0  0  0  0999 V2000
   -1.4620   18.2900   -5.2780 C   0  0  0  0  0  0  0  0  0  0  0  0
   -0.1930   17.5070   -5.5960 C   0  0  0  0  0  0  0  0  0  0  0  0
    0.9040   17.9140   -4.6280 C   0  0  0  0  0  0  0  0  0  0  0  0
   -0.5460   16.1100   -5.5250 O   0  0  0  0  0  0  0  0  0  0  0  0
    0.1120   15.2530   -4.5810 C   0  0  0  0  0  0  0  0  0  0  0  0
   -0.7470   15.1660   -3.2910 C   0  0  1  0  0  0  0  0  0  0  0  0
   -1.8540   14.0880   -3.0650 C   0  0  0  0  0  0  0  0  0  0  0  0
   -0.1130   15.5110   -2.0210 N   0  0  0  0  0  0  0  0  0  0  0  0
   -1.6090   12.9270   -3.3150 O   0  0  0  0  0  0  0  0  0  0  0  0
    0.8550   14.6660   -1.3950 C   0  0  0  0  0  0  0  0  0  0  0  0
   -1.2550   15.7080   -1.3030 C   0  0  0  0  0  0  0  0  0  0  0  0
   -3.2340   14.3740   -2.4430 C   0  0  0  0  0  0  0  0  0  0  0  0
    2.3140   14.0940   -2.0070 S   0  0  0  0  0  0  0  0  0  0  0  0
    0.5630   14.2560   -0.0870 N   0  0  0  0  0  0  0  0  0  0  0  0
   -1.2700   15.7770    0.1620 C   0  0  2  0  0  0  0  0  0  0  0  0
   -2.4770   15.8570   -1.8090 C   0  0  0  0  0  0  0  0  0  0  0  0
   -3.4240   14.1060   -1.0560 C   0  0  0  0  0  0  0  0  0  0  0  0
   -4.3330   14.8830   -3.1560 C   0  0  0  0  0  0  0  0  0  0  0  0
   -0.4900   14.6580    0.7420 C   0  0  0  0  0  0  0  0  0  0  0  0
   -2.7020   15.8800    0.5240 N   0  0  0  0  0  0  0  0  0  0  0  0
   -3.2930   15.9550   -0.6180 C   0  0  0  0  0  0  0  0  0  0  0  0
   -4.6640   14.3470   -0.4250 C   0  0  0  0  0  0  0  0  0  0  0  0
   -5.5700   15.1170   -2.5150 C   0  0  0  0  0  0  0  0  0  0  0  0
   -0.7250   14.1560    1.8380 O   0  0  0  0  0  0  0  0  0  0  0  0
   -5.7270   14.8500   -1.1610 C   0  0  0  0  0  0  0  0  0  0  0  0
   -6.9190   15.0760   -0.5310 O   0  0  0  0  0  0  0  0  0  0  0  0
  1  2  1  0
  2  3  1  0
  2  4  1  0
  4  5  1  0
  6  5  1  6
  6  7  1  0
  6  8  1  0
  7  9  2  0
  8 10  1  0
  8 11  1  0
  7 12  1  0
 10 13  2  0
 10 14  1  0
 11 15  1  0
 11 16  2  0
 12 17  2  0
 12 18  1  0
 14 19  1  0
 15 19  1  0
 15 20  1  1
 16 21  1  0
 20 21  2  0
 17 22  1  0
 18 23  2  0
 19 24  2  0
 22 25  2  0
 23 25  1  0
 25 26  1  0
M  END
