mac-x0115-diamond-x0104_0_A
     RDKit          3D

 33 36  0  0  0  0  0  0  0  0999 V2000
   -1.4150   18.6470   -5.1900 C   0  0  0  0  0  0  0  0  0  0  0  0
   -0.4120   17.6760   -5.7830 C   0  0  0  0  0  0  0  0  0  0  0  0
    1.0110   18.1560   -5.5680 C   0  0  0  0  0  0  0  0  0  0  0  0
   -0.5440   16.4000   -5.1480 O   0  0  0  0  0  0  0  0  0  0  0  0
    0.6960   15.7780   -4.7880 C   0  0  0  0  0  0  0  0  0  0  0  0
    0.3900   14.4560   -4.0750 C   0  0  0  0  0  0  0  0  0  0  0  0
    0.1380   14.6460   -2.6170 N   0  0  0  0  0  0  0  0  0  0  0  0
    1.1140   14.3340   -1.6560 C   0  0  0  0  0  0  0  0  0  0  0  0
   -1.1330   14.9440   -2.1670 C   0  0  0  0  0  0  0  0  0  0  0  0
    2.7080   13.9360   -1.9710 S   0  0  0  0  0  0  0  0  0  0  0  0
    0.7090   14.3580   -0.3240 N   0  0  0  0  0  0  0  0  0  0  0  0
   -1.2730   15.5970   -0.8380 C   0  0  2  0  0  0  0  0  0  0  0  0
   -2.3180   14.7390   -2.7450 C   0  0  0  0  0  0  0  0  0  0  0  0
   -0.5070   14.7930    0.1880 C   0  0  0  0  0  0  0  0  0  0  0  0
   -2.7220   15.7400   -0.6250 N   0  0  0  0  0  0  0  0  0  0  0  0
   -3.2140   15.2500   -1.7300 C   0  0  0  0  0  0  0  0  0  0  0  0
   -0.8720   14.5380    1.3350 O   0  0  0  0  0  0  0  0  0  0  0  0
   -4.5310   15.1240   -2.0740 O   0  0  0  0  0  0  0  0  0  0  0  0
   -5.2350   14.9400   -0.8950 C   0  0  0  0  0  0  0  0  0  0  0  0
   -4.4320   14.8760    0.1740 N   0  0  0  0  0  0  0  0  0  0  0  0
   -6.6120   14.8360   -0.8520 C   0  0  0  0  0  0  0  0  0  0  0  0
   -5.0100   14.7060    1.3710 C   0  0  0  0  0  0  0  0  0  0  0  0
   -7.1890   14.6550    0.4090 C   0  0  0  0  0  0  0  0  0  0  0  0
   -6.3730   14.5920    1.5490 C   0  0  0  0  0  0  0  0  0  0  0  0
   -6.9910   14.4240    2.7980 N   0  0  0  0  0  0  0  0  0  0  0  0
   -8.1150   15.0810    3.2340 C   0  0  0  0  0  0  0  0  0  0  0  0
   -8.0840   15.1090    4.6110 N   0  0  0  0  0  0  0  0  0  0  0  0
   -8.9840   15.5450    2.5070 O   0  0  0  0  0  0  0  0  0  0  0  0
   -9.2150   15.0840    5.4020 C   0  0  0  0  0  0  0  0  0  0  0  0
   -9.2630   15.1860    6.7740 C   0  0  0  0  0  0  0  0  0  0  0  0
  -10.7670   14.9140    4.7250 S   0  0  0  0  0  0  0  0  0  0  0  0
  -11.5210   14.9760    6.2550 C   0  0  0  0  0  0  0  0  0  0  0  0
  -10.6020   15.1240    7.2730 C   0  0  0  0  0  0  0  0  0  0  0  0
  1  2  1  0
  2  3  1  0
  2  4  1  0
  4  5  1  0
  5  6  1  0
  6  7  1  0
  7  8  1  0
  7  9  1  0
  8 10  2  0
  8 11  1  0
  9 12  1  0
  9 13  2  0
 11 14  1  0
 12 14  1  0
 12 15  1  1
 13 16  1  0
 15 16  2  0
 14 17  2  0
 16 18  1  0
 18 19  1  0
 19 20  2  0
 19 21  1  0
 20 22  1  0
 21 23  2  0
 22 24  2  0
 23 24  1  0
 24 25  1  0
 25 26  1  0
 26 27  1  0
 26 28  2  0
 27 29  1  0
 29 30  2  0
 29 31  1  0
 31 32  1  0
 30 33  1  0
 32 33  2  0
M  END
