mac-x0358-mac-x0365
     RDKit          3D

 22 23  0  0  0  0  0  0  0  0999 V2000
    1.3590   12.6020   -1.8850 O   0  0  0  0  0  0  0  0  0  0  0  0
    0.6080   12.1240   -2.8990 C   0  0  0  0  0  0  0  0  0  0  0  0
    0.0110   11.0710   -2.7680 O   0  0  0  0  0  0  0  0  0  0  0  0
    0.6620   13.0550   -4.0730 C   0  0  0  0  0  0  0  0  0  0  0  0
   -0.6270   13.2300   -4.8490 C   0  0  0  0  0  0  0  0  0  0  0  0
   -0.7010   12.7280   -6.1390 C   0  0  0  0  0  0  0  0  0  0  0  0
   -1.8050   13.8400   -4.4030 C   0  0  0  0  0  0  0  0  0  0  0  0
    0.3850   12.0850   -6.6300 O   0  0  0  0  0  0  0  0  0  0  0  0
   -2.1770   14.3480   -3.2040 N   0  0  0  0  0  0  0  0  0  0  0  0
   -1.8370   12.8520   -6.9400 C   0  0  0  0  0  0  0  0  0  0  0  0
   -2.9200   13.9790   -5.2150 C   0  0  0  0  0  0  0  0  0  0  0  0
   -1.8820   14.8400   -2.1050 C   0  0  0  0  0  0  0  0  0  0  0  0
   -2.9510   13.4970   -6.4810 C   0  0  0  0  0  0  0  0  0  0  0  0
   -0.6620   15.1300   -1.6260 O   0  0  0  0  0  0  0  0  0  0  0  0
   -3.0830   14.9870   -1.3050 C   0  0  0  0  0  0  0  0  0  0  0  0
   -4.2180   15.0530   -2.1170 C   0  0  0  0  0  0  0  0  0  0  0  0
   -3.1810   15.0200    0.0860 C   0  0  0  0  0  0  0  0  0  0  0  0
   -5.4540   15.1260   -1.5540 C   0  0  0  0  0  0  0  0  0  0  0  0
   -4.4610   15.0960    0.6530 C   0  0  0  0  0  0  0  0  0  0  0  0
   -6.5430   15.1780   -2.3340 F   0  0  0  0  0  0  0  0  0  0  0  0
   -5.5880   15.1360   -0.1820 C   0  0  0  0  0  0  0  0  0  0  0  0
   -6.8310   15.1750    0.3600 O   0  0  0  0  0  0  0  0  0  0  0  0
  1  2  1  0
  2  3  2  0
  2  4  1  0
  4  5  1  0
  5  6  2  0
  5  7  1  0
  6  8  1  0
  7  9  1  0
  6 10  1  0
  7 11  2  0
  9 12  2  3
 10 13  2  0
 11 13  1  0
 12 14  1  0
 12 15  1  0
 15 16  2  0
 15 17  1  0
 16 18  1  0
 17 19  2  0
 18 20  1  0
 18 21  2  0
 19 21  1  0
 21 22  1  0
M  END
