mac-x0380-mac-x0357
     RDKit          3D

 24 26  0  0  0  0  0  0  0  0999 V2000
   -1.0390   14.3710   -2.1620 N   0  0  0  0  0  0  0  0  0  0  0  0
   -2.2980   14.7540   -2.6310 C   0  0  0  0  0  0  0  0  0  0  0  0
   -2.6110   15.0210   -3.7890 O   0  0  0  0  0  0  0  0  0  0  0  0
   -0.1590   13.5390   -2.6930 C   0  0  0  0  0  0  0  0  0  0  0  0
    1.0030   13.2690   -2.0520 O   0  0  0  0  0  0  0  0  0  0  0  0
   -3.3090   14.8400   -1.5090 C   0  0  0  0  0  0  0  0  0  0  0  0
   -0.2180   12.7760   -3.9700 C   0  0  0  0  0  0  0  0  0  0  0  0
   -4.7010   14.9400   -1.6920 C   0  0  0  0  0  0  0  0  0  0  0  0
   -2.7980   14.8090   -0.2030 C   0  0  0  0  0  0  0  0  0  0  0  0
    0.9170   12.6920   -4.8270 C   0  0  0  0  0  0  0  0  0  0  0  0
   -1.4200   12.1340   -4.3090 C   0  0  0  0  0  0  0  0  0  0  0  0
    2.2240   13.3610   -4.4900 C   0  0  0  0  0  0  0  0  0  0  0  0
   -5.5540   14.9950   -0.5690 C   0  0  0  0  0  0  0  0  0  0  0  0
   -3.6420   14.8670    0.9060 C   0  0  0  0  0  0  0  0  0  0  0  0
   -1.5130   11.4080   -5.4960 C   0  0  0  0  0  0  0  0  0  0  0  0
    0.7790   11.9550   -6.0090 C   0  0  0  0  0  0  0  0  0  0  0  0
    1.7940   11.8030   -6.9070 O   0  0  0  0  0  0  0  0  0  0  0  0
   -5.0200   14.9540    0.7290 C   0  0  0  0  0  0  0  0  0  0  0  0
   -7.3120   15.1050   -0.8110 S   0  0  0  0  0  0  0  0  0  0  0  0
   -0.4140   11.3190   -6.3470 C   0  0  0  0  0  0  0  0  0  0  0  0
   -5.8250   14.9870    1.8860 N   0  0  0  0  0  0  0  0  0  0  0  0
   -7.8050   14.1660    0.6510 C   0  0  0  0  0  0  0  0  0  0  0  0
   -7.1540   14.6530    1.9210 C   0  0  0  0  0  0  0  0  0  0  0  0
   -7.7990   14.7600    2.9710 O   0  0  0  0  0  0  0  0  0  0  0  0
  1  2  1  0
  2  3  2  0
  1  4  2  3
  4  5  1  0
  2  6  1  0
  4  7  1  0
  6  8  2  0
  6  9  1  0
  7 10  2  0
  7 11  1  0
 10 12  1  0
  8 13  1  0
  9 14  2  0
 11 15  2  0
 10 16  1  0
 16 17  1  0
 13 18  2  0
 14 18  1  0
 13 19  1  0
 15 20  1  0
 16 20  2  0
 18 21  1  0
 19 22  1  0
 21 23  1  0
 22 23  1  0
 23 24  2  0
M  END
