mac-x0441-diamond-x0724_0_A
     RDKit          3D

 34 37  0  0  0  0  0  0  0  0999 V2000
    0.4950   10.7670   -3.3820 O   0  0  0  0  0  0  0  0  0  0  0  0
    0.7190   12.0880   -3.4170 C   0  0  0  0  0  0  0  0  0  0  0  0
    0.9930   12.5880   -2.2640 N   0  0  0  0  0  0  0  0  0  0  0  0
    0.6020   12.7110   -4.7850 C   0  0  0  0  0  0  0  0  0  0  0  0
    1.2550   14.0030   -2.0410 C   0  0  0  0  0  0  0  0  0  0  0  0
    0.2780   11.7700   -5.8660 N   0  0  0  0  0  0  0  0  0  0  0  0
    0.0410   14.5550   -1.2790 C   0  0  0  0  0  0  0  0  0  0  0  0
    1.0360   11.7720   -6.9990 N   0  0  0  0  0  0  0  0  0  0  0  0
   -0.7220   10.8360   -5.9340 C   0  0  0  0  0  0  0  0  0  0  0  0
   -1.2190   14.5250   -2.1570 C   0  0  0  0  0  0  0  0  0  0  0  0
    0.4960   10.8170   -7.8010 C   0  0  0  0  0  0  0  0  0  0  0  0
   -0.6000   10.2120   -7.1560 C   0  0  0  0  0  0  0  0  0  0  0  0
   -1.7660   10.5100   -4.9250 C   0  0  0  0  0  0  0  0  0  0  0  0
    0.9550   10.4190   -9.1870 C   0  0  0  0  0  0  0  0  0  0  0  0
   -1.4920    9.1200   -7.6360 C   0  0  0  0  0  0  0  0  0  0  0  0
   -2.9110    9.7340   -5.6120 C   0  0  0  0  0  0  0  0  0  0  0  0
   -2.5210   14.5840   -1.3770 C   0  0  0  0  0  0  0  0  0  0  0  0
    1.6320    9.2390   -9.1830 F   0  0  0  0  0  0  0  0  0  0  0  0
   -0.1150   10.2090  -10.0010 F   0  0  0  0  0  0  0  0  0  0  0  0
    1.6900   11.3080   -9.8810 F   0  0  0  0  0  0  0  0  0  0  0  0
   -2.3850    8.5940   -6.4970 C   0  0  0  0  0  0  0  0  0  0  0  0
   -2.5380   14.6960    0.0230 C   0  0  0  0  0  0  0  0  0  0  0  0
   -3.7390   14.5200   -2.0640 C   0  0  0  0  0  0  0  0  0  0  0  0
   -3.7560   14.7330    0.7160 C   0  0  0  0  0  0  0  0  0  0  0  0
   -4.9590   14.5560   -1.3770 C   0  0  0  0  0  0  0  0  0  0  0  0
   -4.9720   14.6590    0.0180 C   0  0  0  0  0  0  0  0  0  0  0  0
   -6.2040   14.6910    0.7360 N   0  0  0  0  0  0  0  0  0  0  0  0
   -7.3990   14.5510    0.1030 N   0  0  0  0  0  0  0  0  0  0  0  0
   -6.3840   14.8580    2.0930 C   0  0  0  0  0  0  0  0  0  0  0  0
   -7.7430   14.8380    2.3450 C   0  0  0  0  0  0  0  0  0  0  0  0
   -8.3120   14.6390    1.0700 C   0  0  0  0  0  0  0  0  0  0  0  0
   -8.4400   14.9900    3.6500 C   0  0  0  0  0  0  0  0  0  0  0  0
   -8.2450   13.7710    4.4110 N   0  0  0  0  0  0  0  0  0  0  0  0
   -8.6640   13.9470    5.7940 C   0  0  0  0  0  0  0  0  0  0  0  0
  1  2  1  0
  2  3  2  3
  2  4  1  0
  3  5  1  0
  4  6  1  0
  5  7  1  0
  6  8  1  0
  6  9  1  0
  7 10  1  0
  8 11  2  0
  9 12  2  0
 11 12  1  0
  9 13  1  0
 11 14  1  0
 12 15  1  0
 13 16  1  0
 10 17  1  0
 14 18  1  0
 14 19  1  0
 14 20  1  0
 15 21  1  0
 16 21  1  0
 17 22  2  0
 17 23  1  0
 22 24  1  0
 23 25  2  0
 24 26  2  0
 25 26  1  0
 26 27  1  0
 27 28  1  0
 27 29  1  0
 29 30  2  0
 28 31  2  0
 30 31  1  0
 30 32  1  0
 32 33  1  0
 33 34  1  0
M  END
