mac-x0584-mac-x0231
     RDKit          3D

 27 31  0  0  0  0  0  0  0  0999 V2000
    0.5420   11.0360   -4.3940 O   0  0  0  0  0  0  0  0  0  0  0  0
    1.3160   12.1380   -4.2970 C   0  0  0  0  0  0  0  0  0  0  0  0
    2.0830   12.2440   -3.3470 O   0  0  0  0  0  0  0  0  0  0  0  0
    1.1230   13.1200   -5.4030 C   0  0  0  0  0  0  0  0  0  0  0  0
    0.9900   14.5190   -4.8920 C   0  0  0  0  0  0  0  0  0  0  0  0
   -0.2570   15.2590   -4.4220 C   0  0  2  0  0  0  0  0  0  0  0  0
    2.0230   15.2610   -4.6910 N   0  0  0  0  0  0  0  0  0  0  0  0
   -0.2140   14.5820   -3.1060 C   0  0  2  0  0  0  0  0  0  0  0  0
   -1.6660   15.0030   -4.9470 C   0  0  0  0  0  0  0  0  0  0  0  0
    0.2730   16.6540   -4.5190 C   0  0  0  0  0  0  0  0  0  0  0  0
    1.5930   16.4640   -4.2320 N   0  0  0  0  0  0  0  0  0  0  0  0
   -0.2780   17.7070   -4.7830 O   0  0  0  0  0  0  0  0  0  0  0  0
    0.1100   13.1070   -3.1760 C   0  0  0  0  0  0  0  0  0  0  0  0
   -1.5410   14.7210   -2.5700 N   0  0  0  0  0  0  0  0  0  0  0  0
   -2.5140   14.9700   -3.6530 C   0  0  0  0  0  0  0  0  0  0  0  0
    0.8490   12.3190   -2.0890 C   0  0  0  0  0  0  0  0  0  0  0  0
   -0.9870   12.0190   -3.1910 C   0  0  0  0  0  0  0  0  0  0  0  0
   -1.6730   14.7670   -1.2030 C   0  0  0  0  0  0  0  0  0  0  0  0
    0.0190   11.0820   -2.5000 C   0  0  0  0  0  0  0  0  0  0  0  0
   -0.5360   14.5970   -0.4350 N   0  0  0  0  0  0  0  0  0  0  0  0
   -2.7850   14.9770   -0.5210 C   0  0  0  0  0  0  0  0  0  0  0  0
   -0.5530   14.6160    0.9250 C   0  0  0  0  0  0  0  0  0  0  0  0
   -2.7300   15.0010    0.9610 C   0  0  0  0  0  0  0  0  0  0  0  0
   -4.1490   15.2180   -0.8130 C   0  0  0  0  0  0  0  0  0  0  0  0
   -1.5810   14.7960    1.6660 N   0  0  0  0  0  0  0  0  0  0  0  0
   -3.8920   15.2390    1.4720 N   0  0  0  0  0  0  0  0  0  0  0  0
   -4.7300   15.3580    0.3780 C   0  0  0  0  0  0  0  0  0  0  0  0
  1  2  1  0
  2  3  2  0
  2  4  1  0
  4  5  1  0
  6  5  1  0
  5  7  2  0
  6  8  1  0
  6  9  1  6
  6 10  1  0
  7 11  1  0
 10 11  1  0
 10 12  2  0
  8 13  1  6
  8 14  1  0
  9 15  1  0
 14 15  1  0
 13 16  1  0
 13 17  1  0
 14 18  1  0
 16 19  1  0
 17 19  1  0
 18 20  1  0
 18 21  2  0
 20 22  1  0
 21 23  1  0
 21 24  1  0
 22 25  2  0
 23 25  1  0
 23 26  2  0
 24 27  2  0
 26 27  1  0
M  END
