mac-x0341-mac-x0433
     RDKit          3D

 13 14  0  0  0  0  0  0  0  0999 V2000
   -6.7750   14.6150    2.1710 N   0  0  0  0  0  0  0  0  0  0  0  0
   -6.0770   14.7680    1.0080 C   0  0  0  0  0  0  0  0  0  0  0  0
   -4.7150   14.8610    1.1340 N   0  0  0  0  0  0  0  0  0  0  0  0
   -6.7520   14.8210   -0.0950 N   0  0  0  0  0  0  0  0  0  0  0  0
   -4.0740   15.7070    2.0840 C   0  0  0  0  0  0  0  0  0  0  0  0
   -6.0430   14.9870   -1.2640 C   0  0  0  0  0  0  0  0  0  0  0  0
   -3.9420   14.8280   -0.0060 C   0  0  0  0  0  0  0  0  0  0  0  0
   -6.5870   15.1930   -2.3380 O   0  0  0  0  0  0  0  0  0  0  0  0
   -4.5620   14.8990   -1.2400 C   0  0  0  0  0  0  0  0  0  0  0  0
   -2.5460   14.7360    0.0430 C   0  0  0  0  0  0  0  0  0  0  0  0
   -1.7930   14.7170   -1.1280 C   0  0  0  0  0  0  0  0  0  0  0  0
   -3.8170   14.8860   -2.4210 C   0  0  0  0  0  0  0  0  0  0  0  0
   -2.4290   14.7950   -2.3640 C   0  0  0  0  0  0  0  0  0  0  0  0
  1  2  1  0
  2  3  1  0
  2  4  2  0
  3  5  1  0
  4  6  1  0
  3  7  1  0
  6  8  2  0
  6  9  1  0
  7  9  2  0
  7 10  1  0
 10 11  2  0
  9 12  1  0
 11 13  1  0
 12 13  2  0
M  END
