mac-x0404-diamond-x0905_0_A
     RDKit          3D

 24 26  0  0  0  0  0  0  0  0999 V2000
    1.3130   13.0620   -2.1800 O   0  0  0  0  0  0  0  0  0  0  0  0
    1.2490   12.2540   -3.2530 C   0  0  0  0  0  0  0  0  0  0  0  0
    0.5900   11.2250   -3.1680 O   0  0  0  0  0  0  0  0  0  0  0  0
    2.0380   12.7010   -4.4980 C   0  0  0  0  0  0  0  0  0  0  0  0
    1.6770   13.9640   -5.0250 O   0  0  0  0  0  0  0  0  0  0  0  0
    0.3600   14.2510   -4.9590 C   0  0  0  0  0  0  0  0  0  0  0  0
   -0.0090   15.6060   -5.0890 C   0  0  0  0  0  0  0  0  0  0  0  0
   -0.5760   13.2580   -4.7610 C   0  0  0  0  0  0  0  0  0  0  0  0
   -1.3600   15.9620   -4.9890 C   0  0  0  0  0  0  0  0  0  0  0  0
   -1.8920   13.5850   -4.6530 C   0  0  0  0  0  0  0  0  0  0  0  0
    0.9500   16.5980   -5.3090 C   0  0  0  0  0  0  0  0  0  0  0  0
   -2.2860   14.8990   -4.7440 C   0  0  0  0  0  0  0  0  0  0  0  0
   -1.6760   17.3390   -5.1230 C   0  0  0  0  0  0  0  0  0  0  0  0
    0.6280   17.9420   -5.4380 C   0  0  0  0  0  0  0  0  0  0  0  0
   -3.7210   15.0800   -4.5030 C   0  0  0  0  0  0  0  0  0  0  0  0
   -0.7000   18.3160   -5.3460 C   0  0  0  0  0  0  0  0  0  0  0  0
   -3.4040   15.5910   -3.1000 C   0  0  0  0  0  0  0  0  0  0  0  0
   -4.1680   15.3360   -1.8320 C   0  0  0  0  0  0  0  0  0  0  0  0
   -3.4700   15.1520   -0.6210 C   0  0  0  0  0  0  0  0  0  0  0  0
   -5.5440   15.2880   -1.8140 C   0  0  0  0  0  0  0  0  0  0  0  0
   -4.1940   14.9340    0.5380 C   0  0  0  0  0  0  0  0  0  0  0  0
   -6.1670   15.0630   -0.6080 C   0  0  0  0  0  0  0  0  0  0  0  0
   -7.5200   15.0080   -0.5460 O   0  0  0  0  0  0  0  0  0  0  0  0
   -5.5380   14.8860    0.5670 N   0  0  0  0  0  0  0  0  0  0  0  0
  1  2  1  0
  2  3  2  0
  2  4  1  0
  4  5  1  0
  5  6  1  0
  6  7  2  0
  6  8  1  0
  7  9  1  0
  8 10  2  0
  7 11  1  0
  9 12  2  0
 10 12  1  0
  9 13  1  0
 11 14  2  0
 12 15  1  0
 13 16  2  0
 14 16  1  0
 15 17  1  0
 17 18  1  0
 18 19  2  0
 18 20  1  0
 19 21  1  0
 20 22  2  0
 22 23  1  0
 21 24  2  0
 22 24  1  0
M  END
