mac-x0124-mac-x0206
     RDKit          3D

 21 23  0  0  0  0  0  0  0  0999 V2000
    0.1760   14.5910   -3.0900 C   0  0  0  0  0  0  0  0  0  0  0  0
   -0.9550   14.7960   -2.2260 N   0  0  0  0  0  0  0  0  0  0  0  0
   -2.2240   15.0980   -2.6310 C   0  0  0  0  0  0  0  0  0  0  0  0
   -0.9190   14.7200   -0.8490 C   0  0  0  0  0  0  0  0  0  0  0  0
   -2.9720   15.2230   -1.4840 C   0  0  0  0  0  0  0  0  0  0  0  0
   -2.1850   14.9760   -0.3700 C   0  0  0  0  0  0  0  0  0  0  0  0
    0.1460   14.4470   -0.1020 N   0  0  0  0  0  0  0  0  0  0  0  0
   -4.2460   15.5440   -1.4740 N   0  0  0  0  0  0  0  0  0  0  0  0
   -2.3930   14.9470    1.0070 C   0  0  0  0  0  0  0  0  0  0  0  0
   -0.1910   14.4410    1.2120 C   0  0  0  0  0  0  0  0  0  0  0  0
   -3.6040   15.2010    1.6260 N   0  0  0  0  0  0  0  0  0  0  0  0
   -5.2110   14.6570   -1.3810 C   0  0  0  0  0  0  0  0  0  0  0  0
   -1.3690   14.6650    1.7890 N   0  0  0  0  0  0  0  0  0  0  0  0
   -5.2980   13.8160   -2.2600 O   0  0  0  0  0  0  0  0  0  0  0  0
   -6.1810   14.6940   -0.2840 C   0  0  0  0  0  0  0  0  0  0  0  0
   -7.5170   14.7650   -0.5860 C   0  0  0  0  0  0  0  0  0  0  0  0
   -5.7730   14.6620    1.0570 C   0  0  0  0  0  0  0  0  0  0  0  0
   -7.8970   14.7960   -1.8950 O   0  0  0  0  0  0  0  0  0  0  0  0
   -8.4760   14.8050    0.4230 C   0  0  0  0  0  0  0  0  0  0  0  0
   -6.7330   14.7060    2.0770 C   0  0  0  0  0  0  0  0  0  0  0  0
   -8.0810   14.7760    1.7550 C   0  0  0  0  0  0  0  0  0  0  0  0
  1  2  1  0
  2  3  1  0
  2  4  1  0
  3  5  2  0
  4  6  2  0
  5  6  1  0
  4  7  1  0
  5  8  1  0
  6  9  1  0
  7 10  2  0
  9 11  1  0
  8 12  1  0
  9 13  2  0
 10 13  1  0
 12 14  2  0
 12 15  1  0
 15 16  2  0
 15 17  1  0
 16 18  1  0
 16 19  1  0
 17 20  2  0
 19 21  2  0
 20 21  1  0
M  END
