mac-x0182-diamond-x0471_0_A
     RDKit          3D

 31 34  0  0  0  0  0  0  0  0999 V2000
    1.7070   11.8880   -6.9310 O   0  0  0  0  0  0  0  0  0  0  0  0
    0.7510   11.5850   -6.2570 C   0  0  0  0  0  0  0  0  0  0  0  0
    0.4480   12.1370   -5.0380 N   0  0  0  0  0  0  0  0  0  0  0  0
   -0.2180   10.5290   -6.6460 C   0  0  0  0  0  0  0  0  0  0  0  0
   -0.7560   11.2460   -4.2580 S   0  0  2  0  0  0  0  0  0  0  0  0
   -1.1130   10.2380   -5.6230 C   0  0  0  0  0  0  0  0  0  0  0  0
   -0.2900    9.8590   -7.8570 C   0  0  0  0  0  0  0  0  0  0  0  0
   -1.8530   12.3010   -4.0650 N   0  0  0  0  0  0  0  0  0  0  0  0
   -0.0750   10.4780   -3.2410 O   0  0  0  0  0  0  0  0  0  0  0  0
   -2.1040    9.2840   -5.7480 C   0  0  0  0  0  0  0  0  0  0  0  0
   -1.2890    8.8860   -8.0130 C   0  0  0  0  0  0  0  0  0  0  0  0
   -2.0180   12.9990   -2.7730 C   0  0  0  0  0  0  0  0  0  0  0  0
   -2.1880    8.6010   -6.9630 C   0  0  0  0  0  0  0  0  0  0  0  0
   -1.5270   14.4580   -2.7840 C   0  0  0  0  0  0  0  0  0  0  0  0
   -2.6100   15.5460   -2.6050 C   0  0  0  0  0  0  0  0  0  0  0  0
   -3.5630   15.3430   -1.4460 C   0  0  0  0  0  0  0  0  0  0  0  0
   -4.9370   15.1590   -1.7120 C   0  0  0  0  0  0  0  0  0  0  0  0
   -3.0920   15.3360   -0.1250 C   0  0  0  0  0  0  0  0  0  0  0  0
   -5.7790   14.9610   -0.6140 C   0  0  0  0  0  0  0  0  0  0  0  0
   -3.9580   15.1360    0.9580 C   0  0  0  0  0  0  0  0  0  0  0  0
   -7.1380   14.7500   -0.5080 N   0  0  0  0  0  0  0  0  0  0  0  0
   -5.3250   14.9430    0.6930 C   0  0  0  0  0  0  0  0  0  0  0  0
   -7.4500   14.6130    0.8230 C   0  0  0  0  0  0  0  0  0  0  0  0
   -6.3660   14.7240    1.5620 N   0  0  0  0  0  0  0  0  0  0  0  0
   -8.8300   14.3750    1.3320 C   0  0  0  0  0  0  0  0  0  0  0  0
   -8.7300   14.0120    2.7280 N   0  0  0  0  0  0  0  0  0  0  0  0
   -8.9380   14.9680    3.7050 C   0  0  0  0  0  0  0  0  0  0  0  0
   -9.2980   16.1200    3.4550 O   0  0  0  0  0  0  0  0  0  0  0  0
   -8.6870   14.4450    5.1160 C   0  0  0  0  0  0  0  0  0  0  0  0
   -9.9120   13.6880    5.6260 C   0  0  0  0  0  0  0  0  0  0  0  0
   -8.2990   15.5700    6.0750 C   0  0  0  0  0  0  0  0  0  0  0  0
  1  2  2  0
  2  3  1  0
  2  4  1  0
  5  3  1  6
  4  6  2  0
  5  6  1  0
  4  7  1  0
  5  8  2  0
  5  9  2  0
  6 10  1  0
  7 11  2  0
  8 12  1  0
 10 13  2  0
 11 13  1  0
 12 14  1  0
 14 15  1  0
 15 16  1  0
 16 17  2  0
 16 18  1  0
 17 19  1  0
 18 20  2  0
 19 21  1  0
 19 22  2  0
 20 22  1  0
 21 23  1  0
 22 24  1  0
 23 24  2  0
 23 25  1  0
 25 26  1  0
 26 27  1  0
 27 28  2  0
 27 29  1  0
 29 30  1  0
 29 31  1  0
M  END
