mac-x0381-diamond-x0290_0_A
     RDKit          3D

 27 29  0  0  0  0  0  0  0  0999 V2000
   -7.9610   13.2210    4.2840 N   0  0  0  0  0  0  0  0  0  0  0  0
   -8.0620   14.5990    3.8580 C   0  0  0  0  0  0  0  0  0  0  0  0
   -7.6860   15.2910    5.0760 N   0  0  0  0  0  0  0  0  0  0  0  0
   -7.0060   14.8720    2.7560 C   0  0  0  0  0  0  0  0  0  0  0  0
   -9.4300   14.8970    3.2430 C   0  0  0  0  0  0  0  0  0  0  0  0
   -6.5410   13.7390    1.8060 C   0  0  1  0  0  0  0  0  0  0  0  0
   -9.4780   15.8980    2.2640 C   0  0  0  0  0  0  0  0  0  0  0  0
  -10.6340   14.2510    3.5450 C   0  0  0  0  0  0  0  0  0  0  0  0
   -7.6440   13.3340    0.8920 N   0  0  0  0  0  0  0  0  0  0  0  0
   -5.3680   14.2560    0.9040 C   0  0  0  0  0  0  0  0  0  0  0  0
  -10.6250   16.2620    1.5680 C   0  0  0  0  0  0  0  0  0  0  0  0
  -11.8080   14.5940    2.8550 C   0  0  0  0  0  0  0  0  0  0  0  0
   -8.3860   14.4420    0.2990 C   0  0  0  0  0  0  0  0  0  0  0  0
   -5.5190   14.3840   -0.3190 O   0  0  0  0  0  0  0  0  0  0  0  0
   -4.1360   14.5790    1.4020 N   0  0  0  0  0  0  0  0  0  0  0  0
  -11.8110   15.5910    1.8540 C   0  0  0  0  0  0  0  0  0  0  0  0
  -10.6160   17.2700    0.5880 C   0  0  0  0  0  0  0  0  0  0  0  0
  -12.9590   15.9380    1.1230 C   0  0  0  0  0  0  0  0  0  0  0  0
  -11.7680   17.6110   -0.1080 C   0  0  0  0  0  0  0  0  0  0  0  0
   -2.8560   14.5750    0.8500 C   0  0  0  0  0  0  0  0  0  0  0  0
  -12.9480   16.9390    0.1580 C   0  0  0  0  0  0  0  0  0  0  0  0
   -1.8310   14.5370    1.7410 N   0  0  0  0  0  0  0  0  0  0  0  0
   -2.6220   14.6020   -0.5130 C   0  0  0  0  0  0  0  0  0  0  0  0
   -0.5680   14.5250    1.2590 C   0  0  0  0  0  0  0  0  0  0  0  0
   -1.3100   14.5890   -0.9980 C   0  0  0  0  0  0  0  0  0  0  0  0
   -1.0500   14.6170   -2.4730 C   0  0  0  0  0  0  0  0  0  0  0  0
   -0.2590   14.5510   -0.0860 C   0  0  0  0  0  0  0  0  0  0  0  0
  2  1  1  0
  2  3  1  0
  2  4  1  0
  2  5  1  0
  6  4  1  1
  5  7  2  0
  5  8  1  0
  6  9  1  0
  6 10  1  0
  7 11  1  0
  8 12  2  0
  9 13  1  0
 10 14  2  0
 10 15  1  0
 11 16  2  0
 12 16  1  0
 11 17  1  0
 16 18  1  0
 17 19  2  0
 15 20  1  0
 18 21  2  0
 19 21  1  0
 20 22  2  0
 20 23  1  0
 22 24  1  0
 23 25  2  0
 25 26  1  0
 24 27  2  0
 25 27  1  0
M  END
