mac-x0572-mac-x0587
     RDKit          3D

 23 24  0  0  0  0  0  0  0  0999 V2000
   -7.5580   13.8550    3.2270 C   0  0  0  0  0  0  0  0  0  0  0  0
   -7.1720   14.6780    1.9960 C   0  0  1  0  0  0  0  0  0  0  0  0
   -5.7280   15.0630    1.9510 N   0  0  0  0  0  0  0  0  0  0  0  0
   -7.7010   14.0770    0.6900 C   0  0  1  0  0  0  0  0  0  0  0  0
   -9.0930   14.3870    0.5600 O   0  0  0  0  0  0  0  0  0  0  0  0
   -6.9310   14.5690   -0.5330 C   0  0  0  0  0  0  0  0  0  0  0  0
   -4.8200   14.5240    0.9010 C   0  0  1  0  0  0  0  0  0  0  0  0
   -7.4970   15.0730   -1.4960 O   0  0  0  0  0  0  0  0  0  0  0  0
   -5.4280   14.3730   -0.5110 C   0  0  2  0  0  0  0  0  0  0  0  0
   -3.4650   15.2970    0.8890 C   0  0  0  0  0  0  0  0  0  0  0  0
   -2.5760   14.9350   -0.3300 C   0  0  0  0  0  0  0  0  0  0  0  0
   -4.6650   15.1720   -1.5810 C   0  0  0  0  0  0  0  0  0  0  0  0
   -1.3390   14.8910   -0.2670 O   0  0  0  0  0  0  0  0  0  0  0  0
   -3.2430   14.6160   -1.6600 C   0  0  1  0  0  0  0  0  0  0  0  0
   -2.4860   15.0110   -2.9830 C   0  0  0  0  0  0  0  0  0  0  0  0
   -0.9940   14.6090   -3.2340 C   0  0  2  0  0  0  0  0  0  0  0  0
   -3.0960   15.6270   -3.8630 O   0  0  0  0  0  0  0  0  0  0  0  0
   -0.1380   15.7850   -3.7310 C   0  0  0  0  0  0  0  0  0  0  0  0
   -0.7970   13.3500   -4.5720 S   0  0  0  0  0  0  0  0  0  0  0  0
   -0.8180   11.7580   -3.6740 C   0  0  0  0  0  0  0  0  0  0  0  0
    0.4410   11.5200   -2.8680 C   0  0  0  0  0  0  0  0  0  0  0  0
    0.6640   10.4580   -2.2930 O   0  0  0  0  0  0  0  0  0  0  0  0
    1.2980   12.5660   -2.8040 O   0  0  0  0  0  0  0  0  0  0  0  0
  2  1  1  1
  2  3  1  0
  2  4  1  0
  4  5  1  6
  4  6  1  0
  3  7  1  0
  6  8  2  0
  6  9  1  0
  7  9  1  0
  7 10  1  6
 10 11  1  0
  9 12  1  6
 11 13  2  0
 11 14  1  0
 12 14  1  0
 14 15  1  6
 15 16  1  0
 15 17  2  0
 16 18  1  6
 16 19  1  0
 19 20  1  0
 20 21  1  0
 21 22  2  0
 21 23  1  0
M  END
