mac-x0398-mac-x0385
     RDKit          3D

 20 21  0  0  0  0  0  0  0  0999 V2000
   -6.2040   13.7210    1.5130 N   0  0  0  0  0  0  0  0  0  0  0  0
   -5.6700   13.6700    0.2000 C   0  0  0  0  0  0  0  0  0  0  0  0
   -5.5580   12.5050   -0.5240 C   0  0  0  0  0  0  0  0  0  0  0  0
   -5.1940   14.7530   -0.4670 C   0  0  0  0  0  0  0  0  0  0  0  0
   -5.0840   15.9670    0.0880 C   0  0  0  0  0  0  0  0  0  0  0  0
   -4.6960   14.7990   -1.6980 C   0  0  0  0  0  0  0  0  0  0  0  0
   -4.9910   12.5230   -1.8310 C   0  0  0  0  0  0  0  0  0  0  0  0
   -4.3050   15.9920   -2.2060 O   0  0  0  0  0  0  0  0  0  0  0  0
   -4.5600   13.7230   -2.4050 C   0  0  0  0  0  0  0  0  0  0  0  0
   -3.6840   15.5630    0.2150 C   0  0  0  0  0  0  0  0  0  0  0  0
   -3.9370   14.0140   -3.7050 C   0  0  0  0  0  0  0  0  0  0  0  0
   -3.2020   15.4740    1.4300 C   0  0  0  0  0  0  0  0  0  0  0  0
   -2.8370   15.2170   -0.8280 C   0  0  0  0  0  0  0  0  0  0  0  0
   -4.5890   14.1800   -4.7120 O   0  0  0  0  0  0  0  0  0  0  0  0
   -2.5890   14.1380   -3.6530 O   0  0  0  0  0  0  0  0  0  0  0  0
   -4.0680   15.8150    2.4590 N   0  0  0  0  0  0  0  0  0  0  0  0
   -1.9680   15.0800    1.7050 N   0  0  0  0  0  0  0  0  0  0  0  0
   -1.5740   14.8260   -0.6340 N   0  0  0  0  0  0  0  0  0  0  0  0
   -1.2150   14.7880    0.6500 C   0  0  0  0  0  0  0  0  0  0  0  0
    0.1400   14.3890    0.9400 C   0  0  0  0  0  0  0  0  0  0  0  0
  1  2  1  0
  2  3  2  0
  2  4  1  0
  4  5  1  0
  4  6  2  0
  3  7  1  0
  6  8  1  0
  6  9  1  0
  7  9  2  0
  5 10  1  0
  9 11  1  0
 10 12  2  0
 10 13  1  0
 11 14  2  0
 11 15  1  0
 12 16  1  0
 12 17  1  0
 13 18  2  0
 17 19  2  0
 18 19  1  0
 19 20  1  0
M  END
