mac-x0455-mac-x0397
     RDKit          3D

 24 26  0  0  0  0  0  0  0  0999 V2000
   -1.9120   13.4170   -2.0240 C   0  0  0  0  0  0  0  0  0  0  0  0
   -0.9050   13.7880   -3.1290 C   0  0  1  0  0  0  0  0  0  0  0  0
   -1.3190   14.9910   -3.7610 O   0  0  0  0  0  0  0  0  0  0  0  0
    0.4950   13.9260   -2.4630 C   0  0  0  0  0  0  0  0  0  0  0  0
   -0.8870   12.7360   -4.2450 C   0  0  0  0  0  0  0  0  0  0  0  0
    1.2840   14.8510   -2.5790 O   0  0  0  0  0  0  0  0  0  0  0  0
    0.8330   12.8990   -1.6600 O   0  0  0  0  0  0  0  0  0  0  0  0
   -1.5150   16.0490   -2.8580 C   0  0  0  0  0  0  0  0  0  0  0  0
   -1.9360   11.8180   -4.3960 C   0  0  0  0  0  0  0  0  0  0  0  0
    0.1940   12.6650   -5.1490 C   0  0  0  0  0  0  0  0  0  0  0  0
   -1.9130   10.8580   -5.4100 C   0  0  0  0  0  0  0  0  0  0  0  0
    0.2150   11.7040   -6.1640 C   0  0  0  0  0  0  0  0  0  0  0  0
   -2.7200   15.7150   -2.0050 C   0  0  0  0  0  0  0  0  0  0  0  0
   -0.8380   10.8020   -6.2900 C   0  0  0  0  0  0  0  0  0  0  0  0
   -3.9490   15.5070   -2.6300 C   0  0  0  0  0  0  0  0  0  0  0  0
   -2.6300   15.6210   -0.5980 C   0  0  0  0  0  0  0  0  0  0  0  0
   -3.7980   15.3320    0.1390 C   0  0  0  0  0  0  0  0  0  0  0  0
   -5.0720   15.2260   -1.8640 C   0  0  0  0  0  0  0  0  0  0  0  0
   -6.6150   14.9690   -2.5520 Cl  0  0  0  0  0  0  0  0  0  0  0  0
   -5.0250   15.1370   -0.4800 C   0  0  0  0  0  0  0  0  0  0  0  0
   -4.0160   15.1670    1.8320 S   0  0  0  0  0  0  0  0  0  0  0  0
   -5.6900   14.8800    1.5870 C   0  0  0  0  0  0  0  0  0  0  0  0
   -6.0850   14.8760    0.3590 N   0  0  0  0  0  0  0  0  0  0  0  0
   -6.5620   14.6820    2.5780 N   0  0  0  0  0  0  0  0  0  0  0  0
  2  1  1  1
  2  3  1  0
  2  4  1  0
  2  5  1  0
  4  6  2  0
  4  7  1  0
  3  8  1  0
  5  9  2  0
  5 10  1  0
  9 11  1  0
 10 12  2  0
  8 13  1  0
 11 14  2  0
 12 14  1  0
 13 15  2  0
 13 16  1  0
 16 17  2  0
 15 18  1  0
 18 19  1  0
 17 20  1  0
 18 20  2  0
 17 21  1  0
 21 22  1  0
 20 23  1  0
 22 23  2  0
 22 24  1  0
M  END
