mac-x0346-diamond-x0471_0_A
     RDKit          3D

 20 21  0  0  0  0  0  0  0  0999 V2000
   -7.0790   12.8570   -0.3820 N   0  0  0  0  0  0  0  0  0  0  0  0
   -6.2140   13.6230   -1.1160 C   0  0  0  0  0  0  0  0  0  0  0  0
   -5.9040   13.3300   -2.2560 O   0  0  0  0  0  0  0  0  0  0  0  0
   -5.7670   14.8740   -0.4210 C   0  0  2  0  0  0  0  0  0  0  0  0
   -4.6470   15.3320   -1.3080 C   0  0  0  0  0  0  0  0  0  0  0  0
   -5.3660   14.6800    1.0010 C   0  0  0  0  0  0  0  0  0  0  0  0
   -7.2020   15.2170   -0.3700 N   0  0  0  0  0  0  0  0  0  0  0  0
   -4.9620   15.7120   -2.5830 O   0  0  0  0  0  0  0  0  0  0  0  0
   -3.3820   15.3160   -0.8630 C   0  0  0  0  0  0  0  0  0  0  0  0
   -3.9450   14.5720    1.4140 C   0  0  0  0  0  0  0  0  0  0  0  0
   -7.4760   14.9190    0.8790 C   0  0  0  0  0  0  0  0  0  0  0  0
   -6.4210   14.6140    1.7410 N   0  0  0  0  0  0  0  0  0  0  0  0
   -3.0320   14.8950    0.4830 C   0  0  0  0  0  0  0  0  0  0  0  0
   -8.8730   14.9720    1.4610 C   0  0  0  0  0  0  0  0  0  0  0  0
   -8.8630   14.3500    2.7740 N   0  0  0  0  0  0  0  0  0  0  0  0
   -9.0170   15.1500    3.8730 C   0  0  0  0  0  0  0  0  0  0  0  0
   -9.3810   16.3160    3.7890 O   0  0  0  0  0  0  0  0  0  0  0  0
   -8.7070   14.4500    5.1960 C   0  0  0  0  0  0  0  0  0  0  0  0
   -9.9180   13.6530    5.6820 C   0  0  0  0  0  0  0  0  0  0  0  0
   -8.2690   15.4600    6.2510 C   0  0  0  0  0  0  0  0  0  0  0  0
  1  2  1  0
  2  3  2  0
  4  2  1  6
  4  5  1  0
  4  6  1  0
  4  7  1  0
  5  8  1  0
  5  9  2  0
  6 10  1  0
  7 11  2  0
  6 12  2  0
 11 12  1  0
  9 13  1  0
 10 13  2  0
 11 14  1  0
 14 15  1  0
 15 16  1  0
 16 17  2  0
 16 18  1  0
 18 19  1  0
 18 20  1  0
M  END
