mac-x0341-mac-x0163
     RDKit          3D

 28 32  0  0  0  0  0  0  0  0999 V2000
   -8.4980   14.6360    0.9360 N   0  0  0  0  0  0  0  0  0  0  0  0
   -7.2530   14.7250    0.4400 C   0  0  0  0  0  0  0  0  0  0  0  0
   -6.3490   14.9530    1.2520 N   0  0  0  0  0  0  0  0  0  0  0  0
   -7.0210   14.5880   -0.8980 N   0  0  0  0  0  0  0  0  0  0  0  0
   -5.8070   14.9070   -1.4980 C   0  0  0  0  0  0  0  0  0  0  0  0
   -5.0850   15.0420    0.7860 C   0  0  0  0  0  0  0  0  0  0  0  0
   -5.7450   15.0760   -2.6990 O   0  0  0  0  0  0  0  0  0  0  0  0
   -4.6630   15.0190   -0.5570 C   0  0  0  0  0  0  0  0  0  0  0  0
   -4.2490   15.1450    1.8400 C   0  0  0  0  0  0  0  0  0  0  0  0
   -2.9600   15.2110    1.6800 C   0  0  0  0  0  0  0  0  0  0  0  0
   -3.2480   15.0870   -0.6340 C   0  0  0  0  0  0  0  0  0  0  0  0
   -2.5050   15.1860    0.4820 C   0  0  0  0  0  0  0  0  0  0  0  0
   -1.9650   15.1130   -1.1550 C   0  0  0  0  0  0  0  0  0  0  0  0
   -1.3930   14.5260   -0.0140 C   0  0  0  0  0  0  0  0  0  0  0  0
   -1.1140   15.4510   -2.1740 C   0  0  0  0  0  0  0  0  0  0  0  0
   -2.2360   14.1640    1.0710 N   0  0  0  0  0  0  0  0  0  0  0  0
    0.2040   15.1670   -1.9760 N   0  0  0  0  0  0  0  0  0  0  0  0
   -0.1410   14.2640    0.1980 N   0  0  0  0  0  0  0  0  0  0  0  0
   -1.4820   16.0890   -3.3920 N   0  0  0  0  0  0  0  0  0  0  0  0
    0.6130   14.6000   -0.8190 C   0  0  0  0  0  0  0  0  0  0  0  0
   -0.3470   16.9310   -3.8260 C   0  0  0  0  0  0  0  0  0  0  0  0
   -2.0540   15.3940   -4.5030 C   0  0  0  0  0  0  0  0  0  0  0  0
    0.5370   16.2470   -4.8880 C   0  0  0  0  0  0  0  0  0  0  0  0
   -2.5110   16.5000   -5.5010 C   0  0  0  0  0  0  0  0  0  0  0  0
   -3.5680   15.0370   -4.4260 C   0  0  0  0  0  0  0  0  0  0  0  0
   -1.1210   14.3080   -5.0170 C   0  0  0  0  0  0  0  0  0  0  0  0
    0.3430   14.7300   -4.9540 C   0  0  0  0  0  0  0  0  0  0  0  0
   -3.6620   15.5550   -5.8790 C   0  0  0  0  0  0  0  0  0  0  0  0
  1  2  1  0
  2  3  2  0
  2  4  1  0
  4  5  1  0
  3  6  1  0
  5  7  2  0
  5  8  1  0
  6  8  2  0
  6  9  1  0
  9 10  2  0
  8 11  1  0
 10 12  1  0
 11 12  2  0
 11 13  1  0
 13 14  2  0
 13 15  1  0
 14 16  1  0
 15 17  2  0
 14 18  1  0
 15 19  1  0
 17 20  1  0
 18 20  2  0
 19 21  1  0
 22 19  1  0
 21 23  1  0
 22 24  1  0
 22 25  1  0
 22 26  1  0
 23 27  1  0
 26 27  1  0
 24 28  1  0
 25 28  1  0
M  END
