mac-x0223-mac-x0190
     RDKit          3D

 27 29  0  0  0  0  0  0  0  0999 V2000
    1.1760   18.1730   -5.8340 C   0  0  0  0  0  0  0  0  0  0  0  0
    0.1970   17.7110   -4.9350 O   0  0  0  0  0  0  0  0  0  0  0  0
   -0.1810   16.3780   -4.9810 C   0  0  0  0  0  0  0  0  0  0  0  0
   -1.5480   16.1600   -5.1990 C   0  0  0  0  0  0  0  0  0  0  0  0
    0.6550   15.2940   -4.8170 C   0  0  0  0  0  0  0  0  0  0  0  0
   -2.0930   17.3310   -5.2630 O   0  0  0  0  0  0  0  0  0  0  0  0
   -2.1070   14.9070   -5.2760 C   0  0  0  0  0  0  0  0  0  0  0  0
    0.1080   14.0100   -4.8700 C   0  0  0  0  0  0  0  0  0  0  0  0
    0.9900   12.8200   -4.6570 C   0  0  0  0  0  0  0  0  0  0  0  0
   -1.3710   17.6460   -4.1120 C   0  0  0  0  0  0  0  0  0  0  0  0
   -1.2630   13.8190   -5.1070 C   0  0  0  0  0  0  0  0  0  0  0  0
    0.7170   12.2210   -3.2960 C   0  0  0  0  0  0  0  0  0  0  0  0
   -1.5930   16.4240   -3.1130 C   0  0  0  0  0  0  0  0  0  0  0  0
    0.1820   11.1600   -3.0270 O   0  0  0  0  0  0  0  0  0  0  0  0
    1.1360   13.0280   -2.2950 O   0  0  0  0  0  0  0  0  0  0  0  0
   -2.9980   15.7700   -3.1230 C   0  0  0  0  0  0  0  0  0  0  0  0
   -3.7540   15.5230   -1.8040 C   0  0  0  0  0  0  0  0  0  0  0  0
   -5.1310   15.2200   -1.9100 C   0  0  0  0  0  0  0  0  0  0  0  0
   -3.1600   15.5710   -0.5200 C   0  0  0  0  0  0  0  0  0  0  0  0
   -5.8510   14.9690   -0.7430 C   0  0  0  0  0  0  0  0  0  0  0  0
   -3.9200   15.3120    0.6500 C   0  0  0  0  0  0  0  0  0  0  0  0
   -7.1690   14.6500   -0.5270 N   0  0  0  0  0  0  0  0  0  0  0  0
   -5.2890   15.0030    0.5220 C   0  0  0  0  0  0  0  0  0  0  0  0
   -7.3700   14.5000    0.8180 C   0  0  0  0  0  0  0  0  0  0  0  0
   -6.2450   14.7080    1.4780 N   0  0  0  0  0  0  0  0  0  0  0  0
   -8.7060   14.1490    1.3800 C   0  0  0  0  0  0  0  0  0  0  0  0
   -9.0210   15.0740    2.4210 O   0  0  0  0  0  0  0  0  0  0  0  0
  1  2  1  0
  2  3  1  0
  3  4  2  0
  3  5  1  0
  4  6  1  0
  4  7  1  0
  5  8  2  0
  8  9  1  0
  6 10  1  0
  7 11  2  0
  8 11  1  0
  9 12  1  0
 10 13  1  0
 12 14  2  0
 12 15  1  0
 13 16  1  0
 16 17  1  0
 17 18  2  0
 17 19  1  0
 18 20  1  0
 19 21  2  0
 20 22  1  0
 20 23  2  0
 21 23  1  0
 22 24  1  0
 23 25  1  0
 24 25  2  0
 24 26  1  0
 26 27  1  0
M  END
