mac-x0398-diamond-x0849_0_A
     RDKit          3D

 16 17  0  0  0  0  0  0  0  0999 V2000
   -6.0800   15.0120    2.2010 N   0  0  0  0  0  0  0  0  0  0  0  0
   -5.2870   14.7890    0.9900 C   0  0  2  0  0  0  0  0  0  0  0  0
   -3.9830   15.5820    0.8540 C   0  0  0  0  0  0  0  0  0  0  0  0
   -6.0940   14.9740   -0.2890 C   0  0  0  0  0  0  0  0  0  0  0  0
   -5.3690   14.4760   -1.5300 C   0  0  1  0  0  0  0  0  0  0  0  0
   -3.0470   14.8840   -0.1690 C   0  0  1  0  0  0  0  0  0  0  0  0
   -5.8130   15.2820   -2.6260 O   0  0  0  0  0  0  0  0  0  0  0  0
   -3.8170   14.4360   -1.4970 C   0  0  2  0  0  0  0  0  0  0  0  0
   -1.7120   15.6660   -0.5780 C   0  0  0  0  0  0  0  0  0  0  0  0
   -2.5240   13.7150    0.6490 C   0  0  0  0  0  0  0  0  0  0  0  0
   -3.3630   15.0530   -2.8100 C   0  0  0  0  0  0  0  0  0  0  0  0
   -1.6100   14.1890    1.6720 N   0  0  0  0  0  0  0  0  0  0  0  0
   -0.4000   15.2820    0.0970 C   0  0  0  0  0  0  0  0  0  0  0  0
   -4.0720   15.3700   -3.7450 O   0  0  0  0  0  0  0  0  0  0  0  0
   -2.0340   15.2210   -2.9060 O   0  0  0  0  0  0  0  0  0  0  0  0
   -0.4220   14.5710    1.2010 C   0  0  0  0  0  0  0  0  0  0  0  0
  2  1  1  1
  2  3  1  0
  2  4  1  0
  4  5  1  0
  6  3  1  1
  5  7  1  6
  5  8  1  0
  6  8  1  0
  6  9  1  0
  6 10  1  0
  8 11  1  6
 10 12  1  0
  9 13  1  0
 11 14  2  0
 11 15  1  0
 12 16  1  0
 13 16  2  0
M  END
