mac-x0224-mac-x0271
     RDKit          3D

 23 25  0  0  0  0  0  0  0  0999 V2000
   -3.6130   15.3500    1.7690 C   0  0  0  0  0  0  0  0  0  0  0  0
   -1.8680   14.8580    1.5230 S   0  0  0  0  0  0  0  0  0  0  0  0
   -1.8090   14.8520   -0.2340 C   0  0  0  0  0  0  0  0  0  0  0  0
   -0.7350   14.7640   -1.0620 C   0  0  0  0  0  0  0  0  0  0  0  0
   -2.9890   14.9350   -0.7830 C   0  0  0  0  0  0  0  0  0  0  0  0
   -0.9300   14.7720   -2.4620 C   0  0  0  0  0  0  0  0  0  0  0  0
   -3.2920   14.9500   -2.0960 C   0  0  0  0  0  0  0  0  0  0  0  0
    0.3740   14.6370   -3.1170 C   0  0  0  0  0  0  0  0  0  0  0  0
   -2.2520   14.8840   -3.0580 C   0  0  0  0  0  0  0  0  0  0  0  0
   -4.6350   15.0230   -1.6570 C   0  0  0  0  0  0  0  0  0  0  0  0
   -2.4890   14.8980   -4.4100 O   0  0  0  0  0  0  0  0  0  0  0  0
    1.4210   14.4530   -2.5170 O   0  0  0  0  0  0  0  0  0  0  0  0
    0.3400   14.7060   -4.4490 O   0  0  0  0  0  0  0  0  0  0  0  0
   -5.9800   15.2840   -1.9380 C   0  0  0  0  0  0  0  0  0  0  0  0
   -4.2760   14.6460   -0.3760 C   0  0  0  0  0  0  0  0  0  0  0  0
   -6.8530   15.1270   -0.7950 C   0  0  0  0  0  0  0  0  0  0  0  0
   -5.0950   14.5060    0.6660 C   0  0  0  0  0  0  0  0  0  0  0  0
   -6.3870   14.7450    0.4800 C   0  0  0  0  0  0  0  0  0  0  0  0
   -8.2340   15.3570   -0.9200 O   0  0  0  0  0  0  0  0  0  0  0  0
   -7.2480   14.5980    1.6250 C   0  0  0  0  0  0  0  0  0  0  0  0
   -9.0970   15.2060    0.1800 C   0  0  0  0  0  0  0  0  0  0  0  0
  -10.3010   15.3730    0.1000 O   0  0  0  0  0  0  0  0  0  0  0  0
   -8.5280   14.8200    1.4800 C   0  0  0  0  0  0  0  0  0  0  0  0
  1  2  1  0
  2  3  1  0
  3  4  2  0
  3  5  1  0
  4  6  1  0
  5  7  2  0
  6  8  1  0
  6  9  2  0
  7  9  1  0
  7 10  1  0
  9 11  1  0
  8 12  2  0
  8 13  1  0
 10 14  2  0
 10 15  1  0
 14 16  1  0
 15 17  2  0
 16 18  2  0
 17 18  1  0
 16 19  1  0
 18 20  1  0
 19 21  1  0
 21 22  2  0
 20 23  2  0
 21 23  1  0
M  END
