mac-x0319-diamond-x0967_0_A
     RDKit          3D

 24 26  0  0  0  0  0  0  0  0999 V2000
    0.5310   10.4160   -2.4750 O   0  0  0  0  0  0  0  0  0  0  0  0
    0.6440   11.7660   -2.4040 C   0  0  0  0  0  0  0  0  0  0  0  0
    0.3120   12.4190   -1.3440 N   0  0  0  0  0  0  0  0  0  0  0  0
    1.1900   12.4090   -3.6750 C   0  0  0  0  0  0  0  0  0  0  0  0
    0.3860   13.8660   -1.1760 C   0  0  0  0  0  0  0  0  0  0  0  0
    0.5420   13.7330   -4.0050 C   0  0  0  0  0  0  0  0  0  0  0  0
   -0.5320   14.2100    0.0050 C   0  0  0  0  0  0  0  0  0  0  0  0
    1.2720   14.9370   -3.9340 C   0  0  0  0  0  0  0  0  0  0  0  0
   -0.8070   13.7790   -4.3840 C   0  0  0  0  0  0  0  0  0  0  0  0
   -1.3720   15.4820   -0.1910 C   0  0  0  0  0  0  0  0  0  0  0  0
    0.6380   16.1450   -4.2350 C   0  0  0  0  0  0  0  0  0  0  0  0
   -1.4230   14.9960   -4.6840 C   0  0  0  0  0  0  0  0  0  0  0  0
    1.2840   17.3410   -4.1780 O   0  0  0  0  0  0  0  0  0  0  0  0
   -0.6970   16.1820   -4.6080 C   0  0  0  0  0  0  0  0  0  0  0  0
   -2.8690   15.2630   -0.3040 C   0  0  0  0  0  0  0  0  0  0  0  0
   -3.5220   15.1900   -1.5310 C   0  0  0  0  0  0  0  0  0  0  0  0
   -3.6760   15.1230    0.8270 C   0  0  0  0  0  0  0  0  0  0  0  0
   -5.0570   14.9170    0.6790 C   0  0  0  0  0  0  0  0  0  0  0  0
   -4.8550   14.9920   -1.6860 N   0  0  0  0  0  0  0  0  0  0  0  0
   -5.6230   14.8550   -0.6050 C   0  0  0  0  0  0  0  0  0  0  0  0
   -5.8980   14.7690    1.7900 C   0  0  0  0  0  0  0  0  0  0  0  0
   -6.9370   14.6570   -0.7710 N   0  0  0  0  0  0  0  0  0  0  0  0
   -7.2570   14.5620    1.6120 C   0  0  0  0  0  0  0  0  0  0  0  0
   -7.7250   14.5140    0.3180 C   0  0  0  0  0  0  0  0  0  0  0  0
  1  2  1  0
  2  3  2  3
  2  4  1  0
  3  5  1  0
  4  6  1  0
  5  7  1  0
  6  8  2  0
  6  9  1  0
  7 10  1  0
  8 11  1  0
  9 12  2  0
 11 13  1  0
 11 14  2  0
 12 14  1  0
 10 15  1  0
 15 16  2  0
 15 17  1  0
 17 18  2  0
 16 19  1  0
 18 20  1  0
 19 20  2  0
 18 21  1  0
 20 22  1  0
 21 23  2  0
 22 24  2  0
 23 24  1  0
M  END
