mac-x0358-mac-x0263
     RDKit          3D

 27 29  0  0  0  0  0  0  0  0999 V2000
    1.9120   12.8430   -2.5700 O   0  0  0  0  0  0  0  0  0  0  0  0
    1.1940   12.1060   -3.4380 C   0  0  0  0  0  0  0  0  0  0  0  0
    0.6390   11.0930   -3.0380 O   0  0  0  0  0  0  0  0  0  0  0  0
    1.1220   12.6660   -4.8490 C   0  0  0  0  0  0  0  0  0  0  0  0
   -0.2460   13.2180   -4.9190 C   0  0  0  0  0  0  0  0  0  0  0  0
   -1.3620   12.3830   -5.0490 C   0  0  0  0  0  0  0  0  0  0  0  0
   -0.4120   14.5940   -4.8150 C   0  0  0  0  0  0  0  0  0  0  0  0
   -1.2400   11.0290   -5.1710 O   0  0  0  0  0  0  0  0  0  0  0  0
   -2.6400   12.8980   -5.0290 C   0  0  0  0  0  0  0  0  0  0  0  0
   -1.6780   15.1110   -4.7940 C   0  0  0  0  0  0  0  0  0  0  0  0
   -2.7790   14.2650   -4.8760 C   0  0  0  0  0  0  0  0  0  0  0  0
   -4.0550   14.9420   -4.7270 C   0  0  0  0  0  0  0  0  0  0  0  0
   -3.6210   15.6260   -3.4150 C   0  0  0  0  0  0  0  0  0  0  0  0
   -4.3360   15.3700   -2.0960 C   0  0  0  0  0  0  0  0  0  0  0  0
   -5.7210   15.2280   -2.0460 C   0  0  0  0  0  0  0  0  0  0  0  0
   -3.5730   15.2710   -0.9090 C   0  0  0  0  0  0  0  0  0  0  0  0
   -6.2870   14.9810   -0.8010 C   0  0  0  0  0  0  0  0  0  0  0  0
   -4.1680   15.0270    0.3360 C   0  0  0  0  0  0  0  0  0  0  0  0
   -7.5800   14.7880   -0.4160 N   0  0  0  0  0  0  0  0  0  0  0  0
   -5.5570   14.8760    0.3780 C   0  0  0  0  0  0  0  0  0  0  0  0
   -7.6010   14.5770    0.9380 C   0  0  0  0  0  0  0  0  0  0  0  0
   -6.3890   14.6250    1.4390 N   0  0  0  0  0  0  0  0  0  0  0  0
   -8.8630   14.3350    1.6860 C   0  0  0  0  0  0  0  0  0  0  0  0
   -9.5190   15.6560    2.0650 C   0  0  0  0  0  0  0  0  0  0  0  0
  -10.8050   15.4830    2.8230 C   0  0  0  0  0  0  0  0  0  0  0  0
  -11.4710   14.3650    2.4750 O   0  0  0  0  0  0  0  0  0  0  0  0
  -11.2520   16.2350    3.6700 O   0  0  0  0  0  0  0  0  0  0  0  0
  1  2  1  0
  2  3  2  0
  2  4  1  0
  4  5  1  0
  5  6  2  0
  5  7  1  0
  6  8  1  0
  6  9  1  0
  7 10  2  0
  9 11  2  0
 10 11  1  0
 11 12  1  0
 12 13  1  0
 13 14  1  0
 14 15  2  0
 14 16  1  0
 15 17  1  0
 16 18  2  0
 17 19  1  0
 17 20  2  0
 18 20  1  0
 19 21  1  0
 20 22  1  0
 21 22  2  0
 21 23  1  0
 23 24  1  0
 24 25  1  0
 25 26  1  0
 25 27  2  0
M  END
