mac-x0439-mac-x0124
     RDKit          3D

 23 26  0  0  0  0  0  0  0  0999 V2000
   -3.0430   16.0340   -5.2060 Cl  0  0  0  0  0  0  0  0  0  0  0  0
   -1.5960   16.9720   -5.2300 C   0  0  0  0  0  0  0  0  0  0  0  0
   -0.5890   16.9510   -4.1060 C   0  0  1  0  0  0  0  0  0  0  0  0
   -1.3630   17.7370   -6.2950 C   0  0  0  0  0  0  0  0  0  0  0  0
   -0.3570   15.7810   -3.2140 C   0  0  0  0  0  0  0  0  0  0  0  0
    0.7300   16.9450   -4.7870 C   0  0  0  0  0  0  0  0  0  0  0  0
   -0.1280   18.4760   -6.4070 C   0  0  0  0  0  0  0  0  0  0  0  0
    0.8560   15.2390   -3.4970 C   0  0  0  0  0  0  0  0  0  0  0  0
    1.5200   15.9480   -4.4900 N   0  0  0  0  0  0  0  0  0  0  0  0
    0.9480   18.1010   -5.6970 C   0  0  0  0  0  0  0  0  0  0  0  0
   -1.3850   15.5460   -2.3000 N   0  0  0  0  0  0  0  0  0  0  0  0
    1.5420   14.0720   -2.8550 C   0  0  0  0  0  0  0  0  0  0  0  0
   -2.7380   15.5750   -2.6030 C   0  0  0  0  0  0  0  0  0  0  0  0
   -1.2870   15.2800   -0.9360 C   0  0  0  0  0  0  0  0  0  0  0  0
    2.8740   14.2700   -2.6860 O   0  0  0  0  0  0  0  0  0  0  0  0
    1.0270   13.0270   -2.4970 O   0  0  0  0  0  0  0  0  0  0  0  0
   -3.4740   15.3570   -1.4750 C   0  0  0  0  0  0  0  0  0  0  0  0
   -2.5670   15.1760   -0.4190 C   0  0  0  0  0  0  0  0  0  0  0  0
   -0.1570   15.1520   -0.2190 N   0  0  0  0  0  0  0  0  0  0  0  0
   -2.6950   14.9390    0.9400 C   0  0  0  0  0  0  0  0  0  0  0  0
   -0.4010   14.9070    1.0770 C   0  0  0  0  0  0  0  0  0  0  0  0
   -3.9460   14.8590    1.5170 N   0  0  0  0  0  0  0  0  0  0  0  0
   -1.5980   14.7960    1.6990 N   0  0  0  0  0  0  0  0  0  0  0  0
  1  2  1  0
  3  2  1  6
  2  4  2  0
  3  5  1  0
  3  6  1  0
  4  7  1  0
  5  8  2  0
  6  9  2  0
  8  9  1  0
  6 10  1  0
  7 10  2  0
  5 11  1  0
  8 12  1  0
 11 13  1  0
 11 14  1  0
 12 15  1  0
 12 16  2  0
 13 17  2  0
 14 18  2  0
 17 18  1  0
 14 19  1  0
 18 20  1  0
 19 21  2  0
 20 22  1  0
 20 23  2  0
 21 23  1  0
M  END
