mac-x0347-mac-x0333
     RDKit          3D

 21 23  0  0  0  0  0  0  0  0999 V2000
    0.5620   13.8700   -4.0530 O   0  0  0  0  0  0  0  0  0  0  0  0
    0.0650   13.2120   -2.9940 C   0  0  0  0  0  0  0  0  0  0  0  0
    0.7940   12.5970   -2.2430 O   0  0  0  0  0  0  0  0  0  0  0  0
   -1.4020   13.3360   -2.8730 C   0  0  0  0  0  0  0  0  0  0  0  0
   -2.0900   13.1690   -1.6660 C   0  0  0  0  0  0  0  0  0  0  0  0
   -2.1460   13.6390   -4.0050 C   0  0  0  0  0  0  0  0  0  0  0  0
   -3.4960   13.3130   -1.6060 C   0  0  0  0  0  0  0  0  0  0  0  0
   -3.4960   13.7800   -4.0050 N   0  0  0  0  0  0  0  0  0  0  0  0
   -4.1390   13.6170   -2.8170 C   0  0  0  0  0  0  0  0  0  0  0  0
   -4.2750   13.1650   -0.2820 C   0  0  1  0  0  0  0  0  0  0  0  0
   -4.4670   14.5220    0.5120 C   0  0  2  0  0  0  0  0  0  0  0  0
   -5.5950   12.4350   -0.3850 C   0  0  0  0  0  0  0  0  0  0  0  0
   -5.3260   14.3290    1.7440 C   0  0  0  0  0  0  0  0  0  0  0  0
   -6.5180   12.5590    0.5890 C   0  0  0  0  0  0  0  0  0  0  0  0
   -5.0270   15.6120   -0.4160 C   0  0  0  0  0  0  0  0  0  0  0  0
   -3.0540   15.0160    0.8700 C   0  0  0  0  0  0  0  0  0  0  0  0
   -6.2820   13.3910    1.7520 C   0  0  0  0  0  0  0  0  0  0  0  0
   -2.2170   14.7180   -0.3670 C   0  0  2  0  0  0  0  0  0  0  0  0
   -4.1960   15.6200   -1.6490 C   0  0  0  0  0  0  0  0  0  0  0  0
   -0.9050   15.2420   -0.2430 O   0  0  0  0  0  0  0  0  0  0  0  0
   -2.9130   15.2110   -1.6240 C   0  0  0  0  0  0  0  0  0  0  0  0
  1  2  1  0
  2  3  2  0
  2  4  1  0
  4  5  2  0
  4  6  1  0
  5  7  1  0
  6  8  2  0
  7  9  2  0
  8  9  1  0
 10  7  1  6
 10 11  1  0
 10 12  1  0
 11 13  1  1
 12 14  2  0
 11 15  1  0
 11 16  1  0
 13 17  2  0
 14 17  1  0
 16 18  1  0
 15 19  1  0
 18 20  1  1
 18 21  1  0
 19 21  2  0
M  END
