mac-x0138-mac-x0319
     RDKit          3D

 25 27  0  0  0  0  0  0  0  0999 V2000
   -2.0340   14.6510   -3.4390 C   0  0  0  0  0  0  0  0  0  0  0  0
   -2.8870   14.9000   -2.3370 N   0  0  0  0  0  0  0  0  0  0  0  0
   -4.2090   15.2040   -2.3580 C   0  0  0  0  0  0  0  0  0  0  0  0
   -2.4970   14.8760   -1.0640 C   0  0  0  0  0  0  0  0  0  0  0  0
   -4.6800   15.3780   -1.1390 N   0  0  0  0  0  0  0  0  0  0  0  0
   -3.5910   15.1740   -0.3160 C   0  0  0  0  0  0  0  0  0  0  0  0
   -1.3010   14.6240   -0.6450 N   0  0  0  0  0  0  0  0  0  0  0  0
   -3.3860   15.2110    1.0740 C   0  0  0  0  0  0  0  0  0  0  0  0
   -1.1860   14.6800    0.6590 C   0  0  0  0  0  0  0  0  0  0  0  0
   -4.4150   15.5170    1.9450 N   0  0  0  0  0  0  0  0  0  0  0  0
    0.1010   14.4320    0.8960 N   0  0  0  0  0  0  0  0  0  0  0  0
   -2.1390   14.9450    1.5670 N   0  0  0  0  0  0  0  0  0  0  0  0
    0.7740   14.7560   -0.3770 C   0  0  0  0  0  0  0  0  0  0  0  0
    1.2380   13.5210   -1.1390 C   0  0  0  0  0  0  0  0  0  0  0  0
    1.0930   13.4470   -2.5510 N   0  0  0  0  0  0  0  0  0  0  0  0
    1.0100   12.3400   -3.2070 C   0  0  0  0  0  0  0  0  0  0  0  0
    0.9960   11.0640   -2.7620 O   0  0  0  0  0  0  0  0  0  0  0  0
    0.9100   12.5220   -4.6710 C   0  0  0  0  0  0  0  0  0  0  0  0
    0.3920   13.9270   -4.7580 C   0  0  0  0  0  0  0  0  0  0  0  0
    1.1760   15.0560   -4.4340 C   0  0  0  0  0  0  0  0  0  0  0  0
   -0.9290   14.1090   -5.1500 C   0  0  0  0  0  0  0  0  0  0  0  0
    0.6080   16.3260   -4.5080 C   0  0  0  0  0  0  0  0  0  0  0  0
   -1.4800   15.3880   -5.2180 C   0  0  0  0  0  0  0  0  0  0  0  0
    1.2960   17.4610   -4.2000 O   0  0  0  0  0  0  0  0  0  0  0  0
   -0.7060   16.4970   -4.8950 C   0  0  0  0  0  0  0  0  0  0  0  0
  1  2  1  0
  2  3  1  0
  2  4  1  0
  3  5  2  0
  4  6  2  0
  5  6  1  0
  4  7  1  0
  6  8  1  0
  7  9  2  0
  8 10  1  0
  9 11  1  0
  8 12  2  0
  9 12  1  0
 11 13  1  0
 13 14  1  0
 14 15  1  0
 15 16  2  3
 16 17  1  0
 16 18  1  0
 18 19  1  0
 19 20  2  0
 19 21  1  0
 20 22  1  0
 21 23  2  0
 22 24  1  0
 22 25  2  0
 23 25  1  0
M  END
