mac-x0375-diamond-x0766_0_A
     RDKit          3D

 21 23  0  0  0  0  0  0  0  0999 V2000
    0.7730   12.3650   -1.8480 O   0  0  0  0  0  0  0  0  0  0  0  0
    0.8810   12.2960   -3.2510 C   0  0  0  0  0  0  0  0  0  0  0  0
    2.2520   12.1430   -3.5120 O   0  0  0  0  0  0  0  0  0  0  0  0
    0.1530   11.0990   -3.7910 C   0  0  0  0  0  0  0  0  0  0  0  0
    0.2970   13.5090   -3.9540 C   0  0  2  0  0  0  0  0  0  0  0  0
    0.3030   11.1130   -5.2100 O   0  0  0  0  0  0  0  0  0  0  0  0
    1.2200   14.0340   -5.0580 C   0  0  0  0  0  0  0  0  0  0  0  0
    0.0640   14.6900   -2.9970 C   0  0  1  0  0  0  0  0  0  0  0  0
   -0.7840   10.5530   -5.7400 C   0  0  0  0  0  0  0  0  0  0  0  0
    1.5390   15.4620   -4.6550 C   0  0  0  0  0  0  0  0  0  0  0  0
    0.3240   15.9050   -3.8730 C   0  0  0  0  0  0  0  0  0  0  0  0
   -1.2530   14.7060   -2.2460 C   0  0  0  0  0  0  0  0  0  0  0  0
   -0.5740    9.5210   -6.6530 C   0  0  0  0  0  0  0  0  0  0  0  0
   -2.0700   10.9440   -5.4070 C   0  0  0  0  0  0  0  0  0  0  0  0
   -2.5220   14.7900   -2.8040 C   0  0  0  0  0  0  0  0  0  0  0  0
   -1.3430   14.6400   -0.8140 C   0  0  0  0  0  0  0  0  0  0  0  0
   -1.6630    8.8780   -7.2240 C   0  0  0  0  0  0  0  0  0  0  0  0
   -3.1580   10.3060   -5.9760 C   0  0  0  0  0  0  0  0  0  0  0  0
   -2.6390   14.6810   -0.3510 C   0  0  0  0  0  0  0  0  0  0  0  0
   -3.7660   14.7980   -1.6240 S   0  0  0  0  0  0  0  0  0  0  0  0
   -2.9550    9.2690   -6.8840 C   0  0  0  0  0  0  0  0  0  0  0  0
  2  1  1  0
  2  3  1  0
  2  4  1  0
  5  2  1  1
  4  6  1  0
  5  7  1  0
  5  8  1  0
  6  9  1  0
  7 10  1  0
  8 11  1  0
 10 11  1  0
  8 12  1  6
  9 13  2  0
  9 14  1  0
 12 15  2  0
 12 16  1  0
 13 17  1  0
 14 18  2  0
 16 19  2  0
 15 20  1  0
 19 20  1  0
 17 21  2  0
 18 21  1  0
M  END
