mac-x0415-diamond-x0282_0_A
     RDKit          3D

 29 32  0  0  0  0  0  0  0  0999 V2000
    0.2620   10.9600   -4.0740 O   0  0  0  0  0  0  0  0  0  0  0  0
    0.6470   12.2410   -3.9500 C   0  0  0  0  0  0  0  0  0  0  0  0
    0.5290   12.9460   -2.9240 N   0  0  0  0  0  0  0  0  0  0  0  0
    1.2360   12.8950   -5.1460 C   0  0  0  0  0  0  0  0  0  0  0  0
   -0.0880   12.3670   -1.7960 C   0  0  0  0  0  0  0  0  0  0  0  0
    0.8660   14.2930   -4.8500 C   0  0  0  0  0  0  0  0  0  0  0  0
    1.7960   15.3480   -4.4710 C   0  0  0  0  0  0  0  0  0  0  0  0
   -0.2740   14.9710   -4.8290 C   0  0  0  0  0  0  0  0  0  0  0  0
   -0.4550   13.4240   -0.8150 C   0  0  0  0  0  0  0  0  0  0  0  0
    1.3460   16.5430   -4.2590 N   0  0  0  0  0  0  0  0  0  0  0  0
   -0.0740   16.3680   -4.3990 C   0  0  1  0  0  0  0  0  0  0  0  0
   -1.6220   14.5910   -5.1140 C   0  0  0  0  0  0  0  0  0  0  0  0
   -1.7590   13.6240   -0.6230 N   0  0  0  0  0  0  0  0  0  0  0  0
    0.5010   14.1190   -0.1750 C   0  0  0  0  0  0  0  0  0  0  0  0
   -0.8660   17.3610   -5.1710 C   0  0  0  0  0  0  0  0  0  0  0  0
   -2.4740   15.5520   -5.5380 C   0  0  0  0  0  0  0  0  0  0  0  0
    0.0630   15.0390    0.7230 C   0  0  0  0  0  0  0  0  0  0  0  0
   -2.1130   14.5480    0.2560 C   0  0  0  0  0  0  0  0  0  0  0  0
   -4.2350   15.1200   -5.9520 Br  0  0  0  0  0  0  0  0  0  0  0  0
   -2.0330   16.9510   -5.7050 C   0  0  0  0  0  0  0  0  0  0  0  0
   -3.4530   14.7380    0.4120 N   0  0  0  0  0  0  0  0  0  0  0  0
   -1.2360   15.2670    0.9560 N   0  0  0  0  0  0  0  0  0  0  0  0
   -3.9630   14.2550    1.6770 C   0  0  0  0  0  0  0  0  0  0  0  0
   -4.2690   14.6690   -0.8080 C   0  0  0  0  0  0  0  0  0  0  0  0
   -5.3180   14.8860    1.8510 C   0  0  0  0  0  0  0  0  0  0  0  0
   -5.7620   14.9450   -0.5370 C   0  0  0  0  0  0  0  0  0  0  0  0
   -6.2200   14.3130    0.7840 C   0  0  0  0  0  0  0  0  0  0  0  0
   -7.7200   14.4190    1.0990 C   0  0  0  0  0  0  0  0  0  0  0  0
   -8.4960   14.6030   -0.0760 O   0  0  0  0  0  0  0  0  0  0  0  0
  1  2  1  0
  2  3  2  3
  2  4  1  0
  3  5  1  0
  4  6  1  0
  6  7  1  0
  6  8  2  0
  5  9  1  0
  7 10  2  0
  8 11  1  0
 10 11  1  0
  8 12  1  0
  9 13  2  0
  9 14  1  0
 11 15  1  6
 12 16  2  0
 14 17  2  0
 13 18  1  0
 16 19  1  0
 15 20  2  0
 16 20  1  0
 18 21  1  0
 17 22  1  0
 18 22  2  0
 21 23  1  0
 21 24  1  0
 23 25  1  0
 24 26  1  0
 25 27  1  0
 26 27  1  0
 27 28  1  0
 28 29  1  0
M  END
