mac-x0161-mac-x1493
     RDKit          3D

 30 34  0  0  0  0  0  0  0  0999 V2000
   -3.9930   16.2620    1.1310 N   0  0  0  0  0  0  0  0  0  0  0  0
   -3.3260   15.4040    0.1830 C   0  0  2  0  0  0  0  0  0  0  0  0
   -1.7940   15.4570    0.4010 C   0  0  2  0  0  0  0  0  0  0  0  0
   -3.8490   15.7860   -1.1120 N   0  0  0  0  0  0  0  0  0  0  0  0
   -2.8480   15.7090   -2.1560 C   0  0  0  0  0  0  0  0  0  0  0  0
   -0.9570   15.0090   -0.8150 C   0  0  2  0  0  0  0  0  0  0  0  0
   -1.4790   14.5020    1.4660 N   0  0  0  0  0  0  0  0  0  0  0  0
   -1.7830   14.7780   -1.9880 N   0  0  0  0  0  0  0  0  0  0  0  0
   -0.0730   13.9660   -0.2680 N   0  0  0  0  0  0  0  0  0  0  0  0
   -0.1200   14.1840    1.1680 C   0  0  0  0  0  0  0  0  0  0  0  0
   -2.0010   13.5150   -2.5080 C   0  0  0  0  0  0  0  0  0  0  0  0
   -3.1660   12.8470   -2.3390 C   0  0  0  0  0  0  0  0  0  0  0  0
   -1.0260   12.8320   -3.2940 C   0  0  0  0  0  0  0  0  0  0  0  0
   -3.4140   11.5980   -2.8400 O   0  0  0  0  0  0  0  0  0  0  0  0
   -1.3140   12.0000   -4.3520 C   0  0  0  0  0  0  0  0  0  0  0  0
    0.3470   12.8600   -3.1630 O   0  0  0  0  0  0  0  0  0  0  0  0
   -4.3380   13.3520   -1.6140 C   0  0  0  0  0  0  0  0  0  0  0  0
    0.9270   12.0550   -4.1260 N   0  0  0  0  0  0  0  0  0  0  0  0
   -0.0960   11.5510   -4.8210 C   0  0  0  0  0  0  0  0  0  0  0  0
   -4.4600   13.2690   -0.2290 C   0  0  0  0  0  0  0  0  0  0  0  0
   -5.3890   13.9330   -2.3140 C   0  0  0  0  0  0  0  0  0  0  0  0
    0.0400   10.7030   -5.8560 O   0  0  0  0  0  0  0  0  0  0  0  0
   -5.6140   13.7610    0.3960 C   0  0  0  0  0  0  0  0  0  0  0  0
   -6.5180   14.4160   -1.7450 N   0  0  0  0  0  0  0  0  0  0  0  0
   -0.8610    9.5990   -5.8100 C   0  0  0  0  0  0  0  0  0  0  0  0
   -6.6250   14.3280   -0.4100 C   0  0  0  0  0  0  0  0  0  0  0  0
   -5.7720   13.6960    1.7880 C   0  0  0  0  0  0  0  0  0  0  0  0
   -7.7680   14.8070    0.2110 C   0  0  0  0  0  0  0  0  0  0  0  0
   -6.9320   14.1890    2.3840 C   0  0  0  0  0  0  0  0  0  0  0  0
   -7.9310   14.7420    1.5970 C   0  0  0  0  0  0  0  0  0  0  0  0
  2  1  1  1
  2  3  1  0
  2  4  1  0
  4  5  1  0
  3  6  1  0
  3  7  1  1
  5  8  1  0
  6  8  1  0
  6  9  1  1
  7 10  1  0
  9 10  1  0
  8 11  1  0
 11 12  2  3
 11 13  1  0
 12 14  1  0
 13 15  2  0
 13 16  1  0
 12 17  1  0
 16 18  1  0
 15 19  1  0
 18 19  2  0
 17 20  2  0
 17 21  1  0
 19 22  1  0
 20 23  1  0
 21 24  2  0
 22 25  1  0
 23 26  2  0
 24 26  1  0
 23 27  1  0
 26 28  1  0
 27 29  2  0
 28 30  2  0
 29 30  1  0
M  END
