mac-x0182-diamond-x0626_0_A
     RDKit          3D

 25 27  0  0  0  0  0  0  0  0999 V2000
    1.7060   11.8500   -7.0130 O   0  0  0  0  0  0  0  0  0  0  0  0
    0.7850   11.5590   -6.2980 C   0  0  0  0  0  0  0  0  0  0  0  0
    0.5650   12.0740   -5.0540 N   0  0  0  0  0  0  0  0  0  0  0  0
   -0.2440   10.5540   -6.6610 C   0  0  0  0  0  0  0  0  0  0  0  0
   -0.5590   11.1720   -4.2130 S   0  0  2  0  0  0  0  0  0  0  0  0
   -1.0740   10.2400   -5.5910 C   0  0  0  0  0  0  0  0  0  0  0  0
   -0.4200    9.9460   -7.8950 C   0  0  0  0  0  0  0  0  0  0  0  0
   -1.5610   12.2280   -3.7850 N   0  0  0  0  0  0  0  0  0  0  0  0
    0.1850   10.3200   -3.3260 O   0  0  0  0  0  0  0  0  0  0  0  0
   -2.1050    9.3240   -5.6850 C   0  0  0  0  0  0  0  0  0  0  0  0
   -1.4580    9.0120   -8.0220 C   0  0  0  0  0  0  0  0  0  0  0  0
   -1.5430   12.4930   -2.3310 C   0  0  0  0  0  0  0  0  0  0  0  0
   -2.2910    8.7060   -6.9270 C   0  0  0  0  0  0  0  0  0  0  0  0
   -1.1620   13.9400   -1.9580 C   0  0  0  0  0  0  0  0  0  0  0  0
   -1.9210   14.2870   -0.7150 C   0  0  0  0  0  0  0  0  0  0  0  0
   -3.6060   14.4650   -0.8380 S   0  0  0  0  0  0  0  0  0  0  0  0
   -1.5230   14.4900    0.6020 C   0  0  0  0  0  0  0  0  0  0  0  0
   -0.1520   14.4290    1.1450 C   0  0  0  0  0  0  0  0  0  0  0  0
   -2.5560   14.7630    1.4830 N   0  0  0  0  0  0  0  0  0  0  0  0
   -3.7030   14.7600    0.8190 C   0  0  0  0  0  0  0  0  0  0  0  0
   -4.9030   14.9660    1.4140 N   0  0  0  0  0  0  0  0  0  0  0  0
   -6.1370   14.7670    0.8880 C   0  0  0  0  0  0  0  0  0  0  0  0
   -6.2530   14.9040   -0.3370 O   0  0  0  0  0  0  0  0  0  0  0  0
   -7.3370   14.3970    1.7330 C   0  0  0  0  0  0  0  0  0  0  0  0
   -8.6430   14.6280    0.9850 C   0  0  0  0  0  0  0  0  0  0  0  0
  1  2  2  0
  2  3  1  0
  2  4  1  0
  5  3  1  6
  4  6  2  0
  5  6  1  0
  4  7  1  0
  5  8  2  0
  5  9  2  0
  6 10  1  0
  7 11  2  0
  8 12  1  0
 10 13  2  0
 11 13  1  0
 12 14  1  0
 14 15  1  0
 15 16  1  0
 15 17  2  0
 17 18  1  0
 17 19  1  0
 16 20  1  0
 19 20  2  0
 20 21  1  0
 21 22  1  0
 22 23  2  0
 22 24  1  0
 24 25  1  0
M  END
