mac-x0397-mac-x0436
     RDKit          3D

 28 31  0  0  0  0  0  0  0  0999 V2000
   -6.6790   15.3190   -2.2940 Cl  0  0  0  0  0  0  0  0  0  0  0  0
   -5.0970   14.9010   -1.8120 C   0  0  0  0  0  0  0  0  0  0  0  0
   -4.8920   14.8600   -0.4430 C   0  0  0  0  0  0  0  0  0  0  0  0
   -4.0920   14.6050   -2.7150 C   0  0  0  0  0  0  0  0  0  0  0  0
   -5.8340   15.1070    0.5190 N   0  0  0  0  0  0  0  0  0  0  0  0
   -3.6230   14.5310    0.0150 C   0  0  0  0  0  0  0  0  0  0  0  0
   -2.8250   14.2490   -2.2600 C   0  0  0  0  0  0  0  0  0  0  0  0
   -1.7890   13.8710   -3.3060 C   0  0  0  0  0  0  0  0  0  0  0  0
   -5.3140   14.9850    1.6930 C   0  0  0  0  0  0  0  0  0  0  0  0
   -3.6450   14.5710    1.7250 S   0  0  0  0  0  0  0  0  0  0  0  0
   -2.5650   14.2230   -0.8670 C   0  0  0  0  0  0  0  0  0  0  0  0
   -6.0500   15.1740    2.7930 N   0  0  0  0  0  0  0  0  0  0  0  0
   -2.2210   12.5530   -3.8390 N   0  0  0  0  0  0  0  0  0  0  0  0
   -1.7100   11.7530   -4.7390 C   0  0  0  0  0  0  0  0  0  0  0  0
   -0.3930   12.1020   -5.4870 C   0  0  0  0  0  0  0  0  0  0  0  0
   -2.2900   10.5500   -5.0980 N   0  0  0  0  0  0  0  0  0  0  0  0
    0.3950   13.3450   -5.1380 C   0  0  0  0  0  0  0  0  0  0  0  0
   -1.7900    9.7630   -6.1440 C   0  0  0  0  0  0  0  0  0  0  0  0
    0.0770   11.3320   -6.4350 N   0  0  0  0  0  0  0  0  0  0  0  0
    1.6220   13.0030   -4.3060 C   0  0  0  0  0  0  0  0  0  0  0  0
   -0.6150   10.1630   -6.7980 C   0  0  0  0  0  0  0  0  0  0  0  0
   -2.4460    8.5910   -6.5390 C   0  0  0  0  0  0  0  0  0  0  0  0
    1.2670   12.4420   -2.9520 C   0  0  0  0  0  0  0  0  0  0  0  0
   -0.1090    9.3810   -7.8420 C   0  0  0  0  0  0  0  0  0  0  0  0
   -1.9340    7.8180   -7.5830 C   0  0  0  0  0  0  0  0  0  0  0  0
    0.7400   11.2060   -2.9800 O   0  0  0  0  0  0  0  0  0  0  0  0
    1.4240   13.0100   -1.8900 O   0  0  0  0  0  0  0  0  0  0  0  0
   -0.7650    8.2130   -8.2350 C   0  0  0  0  0  0  0  0  0  0  0  0
  1  2  1  0
  2  3  2  0
  2  4  1  0
  3  5  1  0
  3  6  1  0
  4  7  2  0
  7  8  1  0
  5  9  2  0
  6 10  1  0
  9 10  1  0
  6 11  2  0
  7 11  1  0
  9 12  1  0
  8 13  1  0
 13 14  2  3
 14 15  1  0
 14 16  1  0
 15 17  1  0
 16 18  1  0
 15 19  2  0
 17 20  1  0
 18 21  2  0
 19 21  1  0
 18 22  1  0
 20 23  1  0
 21 24  1  0
 22 25  2  0
 23 26  1  0
 23 27  2  0
 24 28  2  0
 25 28  1  0
M  END
