mac-x0277-mac-x0387
     RDKit          3D

 24 26  0  0  0  0  0  0  0  0999 V2000
   -1.2870   18.5180   -5.2390 Cl  0  0  0  0  0  0  0  0  0  0  0  0
   -0.6190   16.9410   -5.0560 C   0  0  0  0  0  0  0  0  0  0  0  0
   -1.3980   15.7980   -5.2080 C   0  0  0  0  0  0  0  0  0  0  0  0
    0.7370   16.8200   -4.7500 C   0  0  0  0  0  0  0  0  0  0  0  0
   -3.0810   15.8700   -5.5900 Cl  0  0  0  0  0  0  0  0  0  0  0  0
   -0.8250   14.5360   -5.0590 C   0  0  0  0  0  0  0  0  0  0  0  0
    1.3080   15.5550   -4.5990 C   0  0  0  0  0  0  0  0  0  0  0  0
    0.5260   14.4050   -4.7560 C   0  0  0  0  0  0  0  0  0  0  0  0
    1.1200   13.0400   -4.5790 C   0  0  0  0  0  0  0  0  0  0  0  0
    0.9380   12.8050   -3.1290 C   0  0  0  0  0  0  0  0  0  0  0  0
    0.7600   11.5250   -2.7350 O   0  0  0  0  0  0  0  0  0  0  0  0
    0.9220   13.7590   -2.2820 N   0  0  0  0  0  0  0  0  0  0  0  0
    0.7380   13.5630   -0.8800 C   0  0  0  0  0  0  0  0  0  0  0  0
   -0.4860   14.0990   -0.2080 C   0  0  0  0  0  0  0  0  0  0  0  0
   -1.6010   14.4750   -0.9520 C   0  0  0  0  0  0  0  0  0  0  0  0
   -0.5540   14.2220    1.1830 C   0  0  0  0  0  0  0  0  0  0  0  0
   -2.7400   14.9480   -0.2760 C   0  0  0  0  0  0  0  0  0  0  0  0
   -1.6310   14.6700    1.8600 N   0  0  0  0  0  0  0  0  0  0  0  0
   -1.6410   14.3960   -2.3590 C   0  0  0  0  0  0  0  0  0  0  0  0
   -2.7010   15.0230    1.1250 C   0  0  0  0  0  0  0  0  0  0  0  0
   -2.7660   14.7700   -3.0760 C   0  0  0  0  0  0  0  0  0  0  0  0
   -3.8710   15.3260   -1.0260 C   0  0  0  0  0  0  0  0  0  0  0  0
   -3.8160   15.4790    1.8430 N   0  0  0  0  0  0  0  0  0  0  0  0
   -3.8820   15.2370   -2.4120 C   0  0  0  0  0  0  0  0  0  0  0  0
  1  2  1  0
  2  3  2  0
  2  4  1  0
  3  5  1  0
  3  6  1  0
  4  7  2  0
  6  8  2  0
  7  8  1  0
  8  9  1  0
  9 10  1  0
 10 11  1  0
 10 12  2  3
 12 13  1  0
 13 14  1  0
 14 15  1  0
 14 16  2  0
 15 17  2  0
 16 18  1  0
 15 19  1  0
 17 20  1  0
 18 20  2  0
 19 21  2  0
 17 22  1  0
 20 23  1  0
 21 24  1  0
 22 24  2  0
M  END
