mac-x0137-diamond-x0421_0_A
     RDKit          3D

 21 24  0  0  0  0  0  0  0  0999 V2000
   -2.7340   12.8960   -3.8690 F   0  0  0  0  0  0  0  0  0  0  0  0
   -1.6800   13.5200   -4.4570 C   0  0  2  0  0  0  0  0  0  0  0  0
   -0.5650   12.4890   -4.6350 C   0  0  0  0  0  0  0  0  0  0  0  0
   -1.2340   14.7320   -3.6140 C   0  0  0  0  0  0  0  0  0  0  0  0
   -0.5180   14.3290   -2.3750 N   0  0  0  0  0  0  0  0  0  0  0  0
    0.1210   12.1340   -3.3160 C   0  0  0  0  0  0  0  0  0  0  0  0
    0.6030   13.3860   -2.5910 C   0  0  0  0  0  0  0  0  0  0  0  0
   -0.9450   14.5300   -1.0390 C   0  0  0  0  0  0  0  0  0  0  0  0
    0.0110   14.5630   -0.1660 N   0  0  0  0  0  0  0  0  0  0  0  0
   -2.3270   14.6470   -0.4920 C   0  0  0  0  0  0  0  0  0  0  0  0
   -0.2730   14.6740    1.1660 C   0  0  0  0  0  0  0  0  0  0  0  0
   -2.5070   14.7130    0.9530 C   0  0  0  0  0  0  0  0  0  0  0  0
   -3.5920   14.7600   -0.8960 C   0  0  0  0  0  0  0  0  0  0  0  0
   -3.8120   14.8430   -2.3170 C   0  0  0  0  0  0  0  0  0  0  0  0
   -1.4200   14.7250    1.7270 N   0  0  0  0  0  0  0  0  0  0  0  0
   -3.7020   14.8090    1.4330 N   0  0  0  0  0  0  0  0  0  0  0  0
   -4.5510   14.7310    0.2400 C   0  0  0  0  0  0  0  0  0  0  0  0
   -5.0830   14.8790   -2.7580 N   0  0  0  0  0  0  0  0  0  0  0  0
   -2.8620   14.8990   -3.0630 O   0  0  0  0  0  0  0  0  0  0  0  0
   -6.0430   14.9830    0.3050 C   0  0  0  0  0  0  0  0  0  0  0  0
   -5.5390   13.5850    0.3120 C   0  0  0  0  0  0  0  0  0  0  0  0
  2  1  1  1
  2  3  1  0
  2  4  1  0
  4  5  1  0
  3  6  1  0
  5  7  1  0
  6  7  1  0
  5  8  1  0
  8  9  2  0
  8 10  1  0
  9 11  1  0
 10 12  1  0
 10 13  2  0
 13 14  1  0
 11 15  2  0
 12 15  1  0
 12 16  2  0
 13 17  1  0
 17 16  1  0
 14 18  1  0
 14 19  2  0
 17 20  1  0
 17 21  1  0
 20 21  1  0
M  END
