mac-x0546-mac-x0412
     RDKit          3D

 28 31  0  0  0  0  0  0  0  0999 V2000
   -4.0380   15.0190   -6.9000 C   0  0  0  0  0  0  0  0  0  0  0  0
   -3.8540   15.6300   -5.6030 N   0  0  0  0  0  0  0  0  0  0  0  0
   -4.7130   14.7560   -4.7660 C   0  0  0  0  0  0  0  0  0  0  0  0
   -2.5310   15.8670   -5.1480 C   0  0  0  0  0  0  0  0  0  0  0  0
   -3.8740   14.0920   -3.7150 C   0  0  0  0  0  0  0  0  0  0  0  0
   -1.8390   14.8060   -4.7000 C   0  0  0  0  0  0  0  0  0  0  0  0
   -1.8430   17.1940   -5.0920 C   0  0  0  0  0  0  0  0  0  0  0  0
   -0.4930   14.9140   -4.1150 C   0  0  2  0  0  0  0  0  0  0  0  0
   -0.5080   17.3560   -4.8550 C   0  0  0  0  0  0  0  0  0  0  0  0
   -4.1580   14.3400   -2.2610 C   0  0  0  0  0  0  0  0  0  0  0  0
    0.2410   16.1030   -4.6650 C   0  0  0  0  0  0  0  0  0  0  0  0
    0.5910   13.9040   -4.3020 C   0  0  0  0  0  0  0  0  0  0  0  0
   -3.0740   14.8340   -1.4300 C   0  0  0  0  0  0  0  0  0  0  0  0
   -5.3500   14.0740   -1.7190 C   0  0  0  0  0  0  0  0  0  0  0  0
    0.4790   12.4270   -4.0820 C   0  0  0  0  0  0  0  0  0  0  0  0
    1.4890   15.8990   -4.9070 N   0  0  0  0  0  0  0  0  0  0  0  0
    1.6730   14.5520   -4.6860 C   0  0  0  0  0  0  0  0  0  0  0  0
   -5.6050   14.2200   -0.2450 C   0  0  2  0  0  0  0  0  0  0  0  0
   -3.2300   15.0940   -0.1210 C   0  0  0  0  0  0  0  0  0  0  0  0
    0.5510   11.9210   -2.6520 C   0  0  0  0  0  0  0  0  0  0  0  0
   -6.9850   14.7320    0.2010 C   0  0  0  0  0  0  0  0  0  0  0  0
   -4.5060   14.9000    0.5320 C   0  0  0  0  0  0  0  0  0  0  0  0
    0.7760   12.5210   -1.6120 O   0  0  0  0  0  0  0  0  0  0  0  0
    0.2980   10.5850   -2.5950 O   0  0  0  0  0  0  0  0  0  0  0  0
   -7.8610   15.0900   -0.5740 O   0  0  0  0  0  0  0  0  0  0  0  0
   -4.7460   15.2860    1.7860 C   0  0  0  0  0  0  0  0  0  0  0  0
   -7.1620   14.7490    1.5680 N   0  0  0  0  0  0  0  0  0  0  0  0
   -6.1120   15.0070    2.2820 C   0  0  0  0  0  0  0  0  0  0  0  0
  1  2  1  0
  2  3  1  0
  2  4  1  0
  3  5  1  0
  4  6  2  0
  4  7  1  0
  8  6  1  6
  7  9  2  0
  5 10  1  0
  8 11  1  0
  9 11  1  0
  8 12  1  0
 10 13  1  0
 10 14  2  0
 12 15  1  0
 11 16  2  0
 12 17  2  0
 16 17  1  0
 18 14  1  6
 13 19  2  0
 15 20  1  0
 18 21  1  0
 18 22  1  0
 19 22  1  0
 20 23  2  0
 20 24  1  0
 21 25  2  0
 22 26  2  0
 21 27  1  0
 26 28  1  0
 27 28  2  0
M  END
