mac-x0182-diamond-x0631_0_A
     RDKit          3D

 27 30  0  0  0  0  0  0  0  0999 V2000
    0.0940   12.6650   -7.1330 O   0  0  0  0  0  0  0  0  0  0  0  0
    0.3970   11.3670   -6.7890 C   0  0  1  0  0  0  0  0  0  0  0  0
    0.8440   11.5690   -5.4180 N   0  0  0  0  0  0  0  0  0  0  0  0
   -0.7920   10.5200   -6.8790 C   0  0  0  0  0  0  0  0  0  0  0  0
    1.3190   10.6800   -7.7150 N   0  0  0  0  0  0  0  0  0  0  0  0
   -0.4500   11.1470   -4.4390 S   0  0  0  0  0  0  0  0  0  0  0  0
   -1.3520   10.2740   -5.6590 C   0  0  0  0  0  0  0  0  0  0  0  0
   -1.3220    9.9800   -8.0400 C   0  0  0  0  0  0  0  0  0  0  0  0
    0.9870    9.2530   -7.9000 N   0  0  0  0  0  0  0  0  0  0  0  0
    1.1770   11.2060   -9.0790 N   0  0  0  0  0  0  0  0  0  0  0  0
   -1.0850   12.4220   -4.2130 O   0  0  0  0  0  0  0  0  0  0  0  0
    0.0010   10.2670   -3.3920 O   0  0  0  0  0  0  0  0  0  0  0  0
   -2.4530    9.4550   -5.5270 C   0  0  0  0  0  0  0  0  0  0  0  0
   -2.4360    9.1590   -7.9420 C   0  0  0  0  0  0  0  0  0  0  0  0
    0.1230    8.5680   -6.9000 C   0  0  0  0  0  0  0  0  0  0  0  0
    1.4130   10.0440   -9.9030 C   0  0  1  0  0  0  0  0  0  0  0  0
    0.5520    9.0800   -9.2730 N   0  0  0  0  0  0  0  0  0  0  0  0
   -2.9970    8.8940   -6.6860 C   0  0  0  0  0  0  0  0  0  0  0  0
   -0.8430    7.4950   -7.3950 C   0  0  0  0  0  0  0  0  0  0  0  0
    1.0820   10.2070  -11.2740 N   0  0  0  0  0  0  0  0  0  0  0  0
    1.9580    9.3510  -12.0730 C   0  0  2  0  0  0  0  0  0  0  0  0
    2.6650    8.4820  -11.1950 O   0  0  0  0  0  0  0  0  0  0  0  0
    3.0210   10.1170  -12.8870 C   0  0  1  0  0  0  0  0  0  0  0  0
    3.3920    9.4080  -14.0680 O   0  0  0  0  0  0  0  0  0  0  0  0
    2.6500   11.5100  -13.3720 C   0  0  0  0  0  0  0  0  0  0  0  0
    3.5560   11.6960  -14.5730 C   0  0  0  0  0  0  0  0  0  0  0  0
    4.2300   10.3480  -14.7430 C   0  0  0  0  0  0  0  0  0  0  0  0
  2  1  1  6
  2  3  1  0
  2  4  1  0
  2  5  1  0
  6  3  1  0
  4  7  2  0
  6  7  1  0
  4  8  1  0
  5  9  1  0
  5 10  1  0
  6 11  2  0
  6 12  2  0
  7 13  1  0
  8 14  2  0
  9 15  1  0
 10 16  1  0
  9 17  1  0
 16 17  1  0
 13 18  2  0
 14 18  1  0
 15 19  1  0
 16 20  1  6
 20 21  1  0
 21 22  1  1
 21 23  1  0
 23 24  1  0
 23 25  1  6
 25 26  1  0
 24 27  1  0
 26 27  1  0
M  END
