mac-x0178-mac-x0373
     RDKit          3D

 27 29  0  0  0  0  0  0  0  0999 V2000
   -0.3050   18.7360   -6.9760 N   0  0  0  0  0  0  0  0  0  0  0  0
   -1.4790   17.9280   -6.0110 S   0  0  0  0  0  0  0  0  0  0  0  0
   -2.5310   17.2920   -6.8540 O   0  0  0  0  0  0  0  0  0  0  0  0
   -2.1040   18.9180   -5.0770 O   0  0  0  0  0  0  0  0  0  0  0  0
   -0.7480   16.7270   -4.9970 C   0  0  0  0  0  0  0  0  0  0  0  0
    0.5690   16.6900   -4.5900 C   0  0  0  0  0  0  0  0  0  0  0  0
   -1.6070   15.7930   -4.5880 C   0  0  0  0  0  0  0  0  0  0  0  0
    0.9980   15.7040   -3.7260 C   0  0  0  0  0  0  0  0  0  0  0  0
   -1.1700   14.8770   -3.7650 C   0  0  0  0  0  0  0  0  0  0  0  0
    0.1060   14.7840   -3.2810 C   0  0  0  0  0  0  0  0  0  0  0  0
    0.1220   13.4920   -2.1990 S   0  0  0  0  0  0  0  0  0  0  0  0
    0.4610   12.4670   -3.1670 O   0  0  0  0  0  0  0  0  0  0  0  0
    1.2890   12.7410   -1.4210 O   0  0  0  0  0  0  0  0  0  0  0  0
    0.1450   14.4940   -1.0310 O   0  0  0  0  0  0  0  0  0  0  0  0
   -1.4590   13.3670   -2.2880 C   0  0  0  0  0  0  0  0  0  0  0  0
   -2.0230   12.4200   -3.2370 C   0  0  0  0  0  0  0  0  0  0  0  0
   -2.4600   14.1490   -1.4440 C   0  0  0  0  0  0  0  0  0  0  0  0
   -1.4610   12.3510   -4.5070 C   0  0  0  0  0  0  0  0  0  0  0  0
   -3.0580   11.6070   -2.9260 C   0  0  0  0  0  0  0  0  0  0  0  0
   -3.5330   14.8060   -2.0280 C   0  0  0  0  0  0  0  0  0  0  0  0
   -2.3420   14.2550   -0.0710 C   0  0  0  0  0  0  0  0  0  0  0  0
   -1.9110   11.4950   -5.4470 C   0  0  0  0  0  0  0  0  0  0  0  0
   -3.5360   10.7230   -3.8680 C   0  0  0  0  0  0  0  0  0  0  0  0
   -4.4550   15.5310   -1.3350 C   0  0  0  0  0  0  0  0  0  0  0  0
   -3.2680   14.9850    0.6430 C   0  0  0  0  0  0  0  0  0  0  0  0
   -2.9620   10.6560   -5.1500 C   0  0  0  0  0  0  0  0  0  0  0  0
   -4.3260   15.6250    0.0210 C   0  0  0  0  0  0  0  0  0  0  0  0
  2  1  1  0
  2  3  2  0
  2  4  2  0
  2  5  1  0
  5  6  2  0
  5  7  1  0
  6  8  1  0
  7  9  2  0
  8 10  2  0
  9 10  1  0
 10 11  1  0
 11 12  2  0
 11 13  1  0
 11 14  1  0
 11 15  1  0
 15 16  1  0
 15 17  1  0
 16 18  2  0
 16 19  1  0
 17 20  2  0
 17 21  1  0
 18 22  1  0
 19 23  2  0
 20 24  1  0
 21 25  2  0
 22 26  2  0
 23 26  1  0
 24 27  2  0
 25 27  1  0
M  END
