mac-x0137-diamond-x0837_0_A
     RDKit          3D

 18 20  0  0  0  0  0  0  0  0999 V2000
   -2.7300   12.7610   -3.8860 F   0  0  0  0  0  0  0  0  0  0  0  0
   -1.7290   13.4530   -4.5020 C   0  0  2  0  0  0  0  0  0  0  0  0
   -0.5930   12.4610   -4.7660 C   0  0  0  0  0  0  0  0  0  0  0  0
   -1.3310   14.6330   -3.5890 C   0  0  0  0  0  0  0  0  0  0  0  0
   -0.6000   14.1760   -2.3980 N   0  0  0  0  0  0  0  0  0  0  0  0
    0.0830   12.0300   -3.4680 C   0  0  0  0  0  0  0  0  0  0  0  0
    0.5170   13.2440   -2.6500 C   0  0  0  0  0  0  0  0  0  0  0  0
   -0.9940   14.4380   -1.0840 C   0  0  0  0  0  0  0  0  0  0  0  0
   -0.0590   14.4180   -0.1880 N   0  0  0  0  0  0  0  0  0  0  0  0
   -2.3740   14.7240   -0.6300 C   0  0  0  0  0  0  0  0  0  0  0  0
   -0.3700   14.6420    1.1270 C   0  0  0  0  0  0  0  0  0  0  0  0
   -2.5870   14.9530    0.7740 C   0  0  0  0  0  0  0  0  0  0  0  0
   -3.5920   14.8580   -1.1400 C   0  0  0  0  0  0  0  0  0  0  0  0
   -4.1870   14.7080   -3.0290 I   0  0  0  0  0  0  0  0  0  0  0  0
   -1.5340   14.8920    1.6130 N   0  0  0  0  0  0  0  0  0  0  0  0
   -3.7920   15.2130    1.1450 N   0  0  0  0  0  0  0  0  0  0  0  0
   -4.5320   15.1440   -0.0100 C   0  0  0  0  0  0  0  0  0  0  0  0
   -5.7630   15.2630   -0.1030 O   0  0  0  0  0  0  0  0  0  0  0  0
  2  1  1  1
  2  3  1  0
  2  4  1  0
  4  5  1  0
  3  6  1  0
  5  7  1  0
  6  7  1  0
  5  8  1  0
  8  9  2  0
  8 10  1  0
  9 11  1  0
 10 12  1  0
 10 13  2  0
 13 14  1  0
 11 15  2  0
 12 15  1  0
 12 16  2  0
 13 17  1  0
 16 17  1  0
 17 18  2  0
M  END
