mac-x0213-mac-x0228
     RDKit          3D

 23 26  0  0  0  0  0  0  0  0999 V2000
   -0.0070   11.8620   -3.7940 O   0  0  0  0  0  0  0  0  0  0  0  0
    0.6040   12.7980   -3.0350 C   0  0  0  0  0  0  0  0  0  0  0  0
    1.3940   12.4890   -2.1600 O   0  0  0  0  0  0  0  0  0  0  0  0
    0.2210   14.2250   -3.3250 C   0  0  2  0  0  0  0  0  0  0  0  0
   -1.2750   14.3710   -3.7070 C   0  0  2  0  0  0  0  0  0  0  0  0
    1.0770   14.9010   -4.3930 C   0  0  0  0  0  0  0  0  0  0  0  0
   -1.1920   15.6980   -4.4460 C   0  0  0  0  0  0  0  0  0  0  0  0
    0.1400   15.9860   -4.8090 C   0  0  0  0  0  0  0  0  0  0  0  0
   -1.9640   14.2900   -2.3160 C   0  0  1  0  0  0  0  0  0  0  0  0
   -2.2000   16.5920   -4.7810 C   0  0  0  0  0  0  0  0  0  0  0  0
    0.4770   17.1510   -5.4750 C   0  0  0  0  0  0  0  0  0  0  0  0
   -1.1760   15.0150   -1.3780 O   0  0  0  0  0  0  0  0  0  0  0  0
   -3.4190   14.5900   -1.9970 C   0  0  0  0  0  0  0  0  0  0  0  0
   -1.8600   17.7700   -5.4620 C   0  0  0  0  0  0  0  0  0  0  0  0
   -0.5330   18.0450   -5.8000 C   0  0  0  0  0  0  0  0  0  0  0  0
   -3.7710   14.4340   -0.6470 C   0  0  0  0  0  0  0  0  0  0  0  0
   -4.4090   14.9850   -2.9290 C   0  0  0  0  0  0  0  0  0  0  0  0
   -5.0640   14.6560   -0.2520 C   0  0  0  0  0  0  0  0  0  0  0  0
   -5.7300   15.2100   -2.4960 C   0  0  0  0  0  0  0  0  0  0  0  0
   -6.0280   15.0370   -1.1600 C   0  0  0  0  0  0  0  0  0  0  0  0
   -5.6630   14.5410    1.0920 C   0  0  0  0  0  0  0  0  0  0  0  0
   -7.2630   15.2070   -0.5870 O   0  0  0  0  0  0  0  0  0  0  0  0
   -7.1330   14.5160    0.6820 C   0  0  0  0  0  0  0  0  0  0  0  0
  1  2  1  0
  2  3  2  0
  4  2  1  6
  4  5  1  0
  4  6  1  0
  5  7  1  1
  6  8  1  0
  7  8  2  0
  5  9  1  0
  7 10  1  0
  8 11  1  0
  9 12  1  1
  9 13  1  0
 10 14  2  0
 11 15  2  0
 14 15  1  0
 13 16  2  0
 13 17  1  0
 16 18  1  0
 17 19  2  0
 18 20  2  0
 19 20  1  0
 18 21  1  0
 20 22  1  0
 21 23  1  0
 22 23  1  0
M  END
