mac-x1493-diamond-x0852_0_B
     RDKit          3D

 22 24  0  0  0  0  0  0  0  0999 V2000
   -1.5510   14.8140   -1.4540 O   0  0  0  0  0  0  0  0  0  0  0  0
   -2.6650   14.9390   -2.2040 C   0  0  0  0  0  0  0  0  0  0  0  0
   -2.5850   15.1220   -3.4080 O   0  0  0  0  0  0  0  0  0  0  0  0
   -3.9140   14.8200   -1.4070 C   0  0  0  0  0  0  0  0  0  0  0  0
   -3.9930   15.0940   -0.0370 C   0  0  0  0  0  0  0  0  0  0  0  0
   -5.0870   14.4080   -2.0310 C   0  0  0  0  0  0  0  0  0  0  0  0
   -5.2200   14.9320    0.6420 C   0  0  0  0  0  0  0  0  0  0  0  0
   -6.2870   14.2440   -1.3910 N   0  0  0  0  0  0  0  0  0  0  0  0
   -6.3490   14.5000   -0.0490 C   0  0  0  0  0  0  0  0  0  0  0  0
   -5.3250   15.2070    2.0540 C   0  0  0  0  0  0  0  0  0  0  0  0
   -7.7080   14.2850    0.6820 C   0  0  0  0  0  0  0  0  0  0  0  0
   -6.5130   15.1870    2.7220 C   0  0  0  0  0  0  0  0  0  0  0  0
   -7.9280   14.8750    2.1560 C   0  0  2  0  0  0  0  0  0  0  0  0
   -8.3980   13.9250    3.3040 C   0  0  0  0  0  0  0  0  0  0  0  0
   -9.0810   15.9980    2.1470 C   0  0  1  0  0  0  0  0  0  0  0  0
  -10.7500   15.4370    1.2600 Br  0  0  0  0  0  0  0  0  0  0  0  0
   -8.6150   14.6140    4.7100 C   0  0  1  0  0  0  0  0  0  0  0  0
   -9.5410   16.5860    3.5020 C   0  0  0  0  0  0  0  0  0  0  0  0
   -7.5600   14.2600    5.6050 O   0  0  0  0  0  0  0  0  0  0  0  0
   -8.7010   16.1440    4.6860 C   0  0  1  0  0  0  0  0  0  0  0  0
   -9.2440   16.7410    5.9400 C   0  0  0  0  0  0  0  0  0  0  0  0
   -9.6410   17.2610    6.9070 N   0  0  0  0  0  0  0  0  0  0  0  0
  1  2  1  0
  2  3  2  0
  2  4  1  0
  4  5  2  0
  4  6  1  0
  5  7  1  0
  6  8  2  0
  7  9  2  0
  8  9  1  0
  7 10  1  0
  9 11  1  0
 10 12  2  0
 13 11  1  6
 13 12  1  0
 13 14  1  0
 13 15  1  0
 15 16  1  1
 14 17  1  0
 15 18  1  0
 17 19  1  1
 17 20  1  0
 18 20  1  0
 20 21  1  1
 21 22  3  0
M  END
