mac-x0326-mac-x0337
     RDKit          3D

 25 27  0  0  0  0  0  0  0  0999 V2000
   -5.2750   15.6990   -1.4760 C   0  0  0  0  0  0  0  0  0  0  0  0
   -5.0820   14.5580   -0.1620 S   0  0  0  0  0  0  0  0  0  0  0  0
   -6.2100   14.7260    0.6490 O   0  0  0  0  0  0  0  0  0  0  0  0
   -3.8530   15.5940   -1.6430 C   0  0  0  0  0  0  0  0  0  0  0  0
   -3.7390   14.6860    0.4020 O   0  0  0  0  0  0  0  0  0  0  0  0
   -3.2430   15.2850   -2.8360 C   0  0  0  0  0  0  0  0  0  0  0  0
   -3.1380   15.7940   -0.4690 C   0  0  0  0  0  0  0  0  0  0  0  0
   -5.1090   12.9640   -0.9050 C   0  0  0  0  0  0  0  0  0  0  0  0
   -1.8550   15.1560   -2.8310 C   0  0  0  0  0  0  0  0  0  0  0  0
   -1.7740   15.6720   -0.4380 C   0  0  0  0  0  0  0  0  0  0  0  0
   -4.0740   12.5000   -1.7330 C   0  0  0  0  0  0  0  0  0  0  0  0
   -6.2120   12.1920   -0.6260 C   0  0  0  0  0  0  0  0  0  0  0  0
   -1.0880   14.8440   -3.9230 N   0  0  0  0  0  0  0  0  0  0  0  0
   -1.1560   15.3450   -1.6340 C   0  0  0  0  0  0  0  0  0  0  0  0
   -4.1810   11.2190   -2.2790 C   0  0  0  0  0  0  0  0  0  0  0  0
   -6.3140   10.9300   -1.1680 C   0  0  0  0  0  0  0  0  0  0  0  0
    0.1720   14.7860   -3.5660 C   0  0  0  0  0  0  0  0  0  0  0  0
    0.5100   15.1030   -1.9160 S   0  0  0  0  0  0  0  0  0  0  0  0
   -5.3080   10.4320   -1.9950 C   0  0  0  0  0  0  0  0  0  0  0  0
    1.2820   14.4660   -4.5190 C   0  0  0  0  0  0  0  0  0  0  0  0
   -5.4460    9.0530   -2.5600 C   0  0  0  0  0  0  0  0  0  0  0  0
    1.4730   12.9640   -4.6710 C   0  0  0  0  0  0  0  0  0  0  0  0
    1.0470   12.2490   -3.4240 C   0  0  0  0  0  0  0  0  0  0  0  0
    0.0470   11.3720   -3.6370 O   0  0  0  0  0  0  0  0  0  0  0  0
    1.5250   12.4040   -2.3120 O   0  0  0  0  0  0  0  0  0  0  0  0
  2  1  1  0
  2  3  2  0
  1  4  1  0
  2  5  2  0
  4  6  2  0
  4  7  1  0
  2  8  1  0
  6  9  1  0
  7 10  2  0
  8 11  2  0
  8 12  1  0
  9 13  1  0
  9 14  2  0
 10 14  1  0
 11 15  1  0
 12 16  2  0
 13 17  2  0
 14 18  1  0
 17 18  1  0
 15 19  2  0
 16 19  1  0
 17 20  1  0
 19 21  1  0
 20 22  1  0
 22 23  1  0
 23 24  1  0
 23 25  2  0
M  END
