mac-x0555-mac-x0231
     RDKit          3D

 27 30  0  0  0  0  0  0  0  0999 V2000
   -7.1840   14.5840    2.8710 N   0  0  0  0  0  0  0  0  0  0  0  0
   -6.8290   14.6390    1.5270 C   0  0  0  0  0  0  0  0  0  0  0  0
   -7.7400   14.4650    0.4960 C   0  0  0  0  0  0  0  0  0  0  0  0
   -5.5030   14.8780    1.1550 C   0  0  0  0  0  0  0  0  0  0  0  0
   -5.1370   14.9240   -0.2000 C   0  0  0  0  0  0  0  0  0  0  0  0
   -7.4300   14.5040   -0.8160 N   0  0  0  0  0  0  0  0  0  0  0  0
   -6.1510   14.7230   -1.1570 C   0  0  0  0  0  0  0  0  0  0  0  0
   -3.8190   15.1520   -0.6250 C   0  0  0  0  0  0  0  0  0  0  0  0
   -5.8210   14.7390   -2.5060 C   0  0  0  0  0  0  0  0  0  0  0  0
   -3.5100   15.1580   -1.9930 C   0  0  0  0  0  0  0  0  0  0  0  0
   -4.5190   14.9400   -2.9640 C   0  0  0  0  0  0  0  0  0  0  0  0
   -4.2050   14.8940   -4.4720 C   0  0  0  0  0  0  0  0  0  0  0  0
   -2.7730   14.6140   -4.5570 C   0  0  0  0  0  0  0  0  0  0  0  0
   -1.8830   15.6800   -4.5690 C   0  0  0  0  0  0  0  0  0  0  0  0
   -2.3380   13.3010   -4.5910 C   0  0  0  0  0  0  0  0  0  0  0  0
   -0.5280   15.4130   -4.5770 C   0  0  0  0  0  0  0  0  0  0  0  0
   -0.9850   13.0380   -4.5990 C   0  0  0  0  0  0  0  0  0  0  0  0
   -0.0880   14.1000   -4.5730 C   0  0  0  0  0  0  0  0  0  0  0  0
    0.4490   16.5020   -4.5700 C   0  0  0  0  0  0  0  0  0  0  0  0
    0.1220   17.6790   -4.7030 O   0  0  0  0  0  0  0  0  0  0  0  0
    1.3520   13.8750   -4.5090 C   0  0  0  0  0  0  0  0  0  0  0  0
    1.7430   16.1080   -4.4060 N   0  0  0  0  0  0  0  0  0  0  0  0
    1.8510   12.4610   -4.4520 C   0  0  0  0  0  0  0  0  0  0  0  0
    2.2050   14.8320   -4.4130 N   0  0  0  0  0  0  0  0  0  0  0  0
    1.4130   11.9070   -3.1230 C   0  0  0  0  0  0  0  0  0  0  0  0
    0.8600   10.6810   -3.1650 O   0  0  0  0  0  0  0  0  0  0  0  0
    1.5250   12.5030   -2.0670 O   0  0  0  0  0  0  0  0  0  0  0  0
  1  2  1  0
  2  3  2  0
  2  4  1  0
  4  5  2  0
  3  6  1  0
  5  7  1  0
  6  7  2  0
  5  8  1  0
  7  9  1  0
  8 10  2  0
  9 11  2  0
 10 11  1  0
 11 12  1  0
 12 13  1  0
 13 14  2  0
 13 15  1  0
 14 16  1  0
 15 17  2  0
 16 18  2  0
 17 18  1  0
 16 19  1  0
 19 20  2  0
 18 21  1  0
 19 22  1  0
 21 23  1  0
 21 24  2  0
 22 24  1  0
 23 25  1  0
 25 26  1  0
 25 27  2  0
M  END
