mac-x0226-mac-x0224
     RDKit          3D

 25 27  0  0  0  0  0  0  0  0999 V2000
    0.9760   12.9610   -2.4960 N   0  0  0  0  0  0  0  0  0  0  0  0
    0.4270   11.7490   -2.7730 C   0  0  0  0  0  0  0  0  0  0  0  0
   -0.0050   10.8750   -2.0040 O   0  0  0  0  0  0  0  0  0  0  0  0
    0.3710   14.0820   -2.2250 C   0  0  0  0  0  0  0  0  0  0  0  0
    1.0730   15.1920   -2.0480 O   0  0  0  0  0  0  0  0  0  0  0  0
    0.5000   11.6650   -4.2120 C   0  0  0  0  0  0  0  0  0  0  0  0
   -1.0810   14.4150   -2.0560 C   0  0  0  0  0  0  0  0  0  0  0  0
    1.3440   12.4740   -5.0100 C   0  0  0  0  0  0  0  0  0  0  0  0
   -0.1490   10.8630   -5.1230 C   0  0  0  0  0  0  0  0  0  0  0  0
   -1.5550   14.5390   -0.7450 C   0  0  0  0  0  0  0  0  0  0  0  0
   -1.9930   14.6310   -3.1150 C   0  0  0  0  0  0  0  0  0  0  0  0
   -1.6630   14.5510   -4.4420 O   0  0  0  0  0  0  0  0  0  0  0  0
    1.2460   12.2060   -6.3050 N   0  0  0  0  0  0  0  0  0  0  0  0
    0.3260   11.2070   -6.3750 N   0  0  0  0  0  0  0  0  0  0  0  0
   -2.8800   14.8670   -0.4700 C   0  0  0  0  0  0  0  0  0  0  0  0
   -3.3310   14.9590   -2.8450 C   0  0  0  0  0  0  0  0  0  0  0  0
   -3.3230   15.0010    1.2500 S   0  0  0  0  0  0  0  0  0  0  0  0
   -0.0310   10.6480   -7.6240 C   0  0  0  0  0  0  0  0  0  0  0  0
   -3.7770   15.0790   -1.5240 C   0  0  0  0  0  0  0  0  0  0  0  0
   -5.1250   14.9300    1.1550 C   0  0  0  0  0  0  0  0  0  0  0  0
   -1.1640    9.8490   -7.7750 C   0  0  0  0  0  0  0  0  0  0  0  0
    0.7690   10.8980   -8.7300 C   0  0  0  0  0  0  0  0  0  0  0  0
   -1.4690    9.3210   -9.0330 C   0  0  0  0  0  0  0  0  0  0  0  0
    0.4740   10.3790   -9.9800 C   0  0  0  0  0  0  0  0  0  0  0  0
   -0.6540    9.5840  -10.1330 C   0  0  0  0  0  0  0  0  0  0  0  0
  1  2  1  0
  2  3  2  0
  1  4  2  3
  4  5  1  0
  2  6  1  0
  4  7  1  0
  6  8  1  0
  6  9  2  0
  7 10  2  0
  7 11  1  0
 11 12  1  0
  8 13  2  0
  9 14  1  0
 13 14  1  0
 10 15  1  0
 11 16  2  0
 15 17  1  0
 14 18  1  0
 15 19  2  0
 16 19  1  0
 17 20  1  0
 18 21  2  0
 18 22  1  0
 21 23  1  0
 22 24  2  0
 23 25  2  0
 24 25  1  0
M  END
