mac-x0138-diamond-x0905_0_A
     RDKit          3D

 13 14  0  0  0  0  0  0  0  0999 V2000
   -1.3900   14.5650   -3.2630 C   0  0  0  0  0  0  0  0  0  0  0  0
   -2.3220   15.3830   -2.5010 N   0  0  0  0  0  0  0  0  0  0  0  0
   -3.7510   14.9990   -2.6200 C   0  0  0  0  0  0  0  0  0  0  0  0
   -2.0610   15.4570   -1.0640 C   0  0  1  0  0  0  0  0  0  0  0  0
   -4.3660   15.4490   -1.3500 N   0  0  0  0  0  0  0  0  0  0  0  0
   -3.3470   14.9190   -0.4510 C   0  0  2  0  0  0  0  0  0  0  0  0
   -0.9630   14.6640   -0.5550 N   0  0  0  0  0  0  0  0  0  0  0  0
   -5.6580   14.7780   -1.1140 O   0  0  0  0  0  0  0  0  0  0  0  0
   -3.2510   15.3540    1.0040 C   0  0  1  0  0  0  0  0  0  0  0  0
   -0.8890   15.0280    0.8340 C   0  0  2  0  0  0  0  0  0  0  0  0
   -4.4130   14.9290    1.7550 N   0  0  0  0  0  0  0  0  0  0  0  0
    0.0930   14.1950    1.4120 N   0  0  0  0  0  0  0  0  0  0  0  0
   -2.0910   14.6780    1.5450 N   0  0  0  0  0  0  0  0  0  0  0  0
  1  2  1  0
  2  3  1  0
  2  4  1  0
  3  5  1  0
  4  6  1  0
  6  5  1  6
  4  7  1  6
  5  8  1  0
  6  9  1  0
  7 10  1  0
  9 11  1  1
 10 12  1  1
  9 13  1  0
 10 13  1  0
M  END
