mac-x0303-mac-x0179
     RDKit          3D

 31 34  0  0  0  0  0  0  0  0999 V2000
   -8.1750   13.1340    2.9520 N   0  0  0  0  0  0  0  0  0  0  0  0
   -8.4510   14.5740    2.1240 S   0  0  0  0  0  0  0  0  0  0  0  0
   -8.3480   15.6610    3.0650 O   0  0  0  0  0  0  0  0  0  0  0  0
   -9.5960   14.4100    1.2630 O   0  0  0  0  0  0  0  0  0  0  0  0
   -7.0600   14.7500    1.0500 C   0  0  0  0  0  0  0  0  0  0  0  0
   -7.1330   14.8430   -0.3200 N   0  0  0  0  0  0  0  0  0  0  0  0
   -5.8130   14.8130    1.4660 N   0  0  0  0  0  0  0  0  0  0  0  0
   -5.8450   14.9640   -0.8000 C   0  0  0  0  0  0  0  0  0  0  0  0
   -5.0540   14.9440    0.3420 C   0  0  0  0  0  0  0  0  0  0  0  0
   -5.3130   15.0850   -2.0880 C   0  0  0  0  0  0  0  0  0  0  0  0
   -3.6670   15.0420    0.2320 C   0  0  0  0  0  0  0  0  0  0  0  0
   -3.9080   15.1730   -2.1910 C   0  0  0  0  0  0  0  0  0  0  0  0
   -3.1120   15.1550   -1.0410 C   0  0  0  0  0  0  0  0  0  0  0  0
   -3.2300   15.2840   -3.5420 C   0  0  0  0  0  0  0  0  0  0  0  0
   -3.2920   13.9550   -4.3120 C   0  0  0  0  0  0  0  0  0  0  0  0
   -2.3940   12.8600   -3.7160 C   0  0  0  0  0  0  0  0  0  0  0  0
   -2.2190   11.7820   -4.6790 N   0  0  0  0  0  0  0  0  0  0  0  0
   -1.1900   11.4840   -5.3730 C   0  0  0  0  0  0  0  0  0  0  0  0
    0.0660   12.0230   -5.4660 N   0  0  0  0  0  0  0  0  0  0  0  0
   -1.2330   10.3670   -6.3320 C   0  0  0  0  0  0  0  0  0  0  0  0
    0.8150   12.8120   -4.4960 C   0  0  0  0  0  0  0  0  0  0  0  0
    0.7410   11.4900   -6.5330 C   0  0  0  0  0  0  0  0  0  0  0  0
   -0.0530   10.3830   -7.0470 C   0  0  0  0  0  0  0  0  0  0  0  0
   -2.2090    9.4160   -6.5720 C   0  0  0  0  0  0  0  0  0  0  0  0
    0.9960   12.1210   -3.1500 C   0  0  0  0  0  0  0  0  0  0  0  0
    1.8060   11.8230   -6.9710 O   0  0  0  0  0  0  0  0  0  0  0  0
    0.2230    9.4660   -8.0440 C   0  0  0  0  0  0  0  0  0  0  0  0
   -1.9580    8.4730   -7.5770 C   0  0  0  0  0  0  0  0  0  0  0  0
    1.5670   12.8680   -2.1830 O   0  0  0  0  0  0  0  0  0  0  0  0
    0.6480   10.9680   -2.9360 O   0  0  0  0  0  0  0  0  0  0  0  0
   -0.7510    8.4990   -8.3070 C   0  0  0  0  0  0  0  0  0  0  0  0
  2  1  1  0
  2  3  2  0
  2  4  2  0
  2  5  1  0
  5  6  1  0
  5  7  2  0
  6  8  1  0
  7  9  1  0
  8  9  2  0
  8 10  1  0
  9 11  1  0
 10 12  2  0
 11 13  2  0
 12 13  1  0
 12 14  1  0
 14 15  1  0
 15 16  1  0
 16 17  1  0
 17 18  2  3
 18 19  1  0
 18 20  1  0
 19 21  1  0
 19 22  1  0
 20 23  2  0
 22 23  1  0
 20 24  1  0
 21 25  1  0
 22 26  2  0
 23 27  1  0
 24 28  2  0
 25 29  1  0
 25 30  2  0
 27 31  2  0
 28 31  1  0
M  END
