mac-x0338-mac-x0142
     RDKit          3D

 22 25  0  0  0  0  0  0  0  0999 V2000
   -3.6530   14.6810    1.9850 N   0  0  0  0  0  0  0  0  0  0  0  0
   -4.6440   14.7670    1.0740 C   0  0  0  0  0  0  0  0  0  0  0  0
   -5.8270   14.7440    1.4270 O   0  0  0  0  0  0  0  0  0  0  0  0
   -4.2300   14.9220   -0.3860 C   0  0  1  0  0  0  0  0  0  0  0  0
   -2.7000   15.1080   -0.8480 C   0  0  1  0  0  0  0  0  0  0  0  0
   -5.0700   14.0720   -1.3190 C   0  0  0  0  0  0  0  0  0  0  0  0
   -2.8610   15.7840   -2.1790 C   0  0  0  0  0  0  0  0  0  0  0  0
   -4.9230   14.6090   -2.6720 N   0  0  0  0  0  0  0  0  0  0  0  0
   -2.0600   15.9610    0.2290 C   0  0  0  0  0  0  0  0  0  0  0  0
   -1.5730   14.0200   -1.2010 C   0  0  1  0  0  0  0  0  0  0  0  0
   -3.9020   15.4940   -2.9730 C   0  0  0  0  0  0  0  0  0  0  0  0
   -1.1110   14.0180   -2.6290 N   0  0  0  0  0  0  0  0  0  0  0  0
   -0.3210   14.1010   -0.4250 N   0  0  0  0  0  0  0  0  0  0  0  0
   -1.5280   15.1370    1.2990 N   0  0  0  0  0  0  0  0  0  0  0  0
   -2.0930   13.8590   -3.7060 C   0  0  0  0  0  0  0  0  0  0  0  0
    0.1290   14.6530   -3.0850 C   0  0  0  0  0  0  0  0  0  0  0  0
   -0.2650   14.5910    0.9210 C   0  0  0  0  0  0  0  0  0  0  0  0
    0.7510   13.6770   -4.0610 C   0  0  0  0  0  0  0  0  0  0  0  0
   -1.5220   12.9710   -4.8200 C   0  0  0  0  0  0  0  0  0  0  0  0
    2.2520   13.5200   -4.2000 C   0  0  0  0  0  0  0  0  0  0  0  0
    1.4600   12.5040   -3.4350 C   0  0  0  0  0  0  0  0  0  0  0  0
   -0.1250   13.4140   -5.2610 C   0  0  0  0  0  0  0  0  0  0  0  0
  1  2  1  0
  2  3  2  0
  4  2  1  1
  4  5  1  0
  4  6  1  0
  5  7  1  6
  6  8  1  0
  5  9  1  0
  5 10  1  0
  7 11  2  0
  8 11  1  0
 10 12  1  6
 10 13  1  0
  9 14  1  0
 12 15  1  0
 12 16  1  0
 13 17  1  0
 14 17  1  0
 18 16  1  0
 15 19  1  0
 18 20  1  0
 18 21  1  0
 20 21  1  0
 18 22  1  0
 19 22  1  0
M  END
