mac-x0496-mac-x0584
     RDKit          3D

 32 36  0  0  0  0  0  0  0  0999 V2000
   -9.8970   17.7860    4.7440 C   0  0  0  0  0  0  0  0  0  0  0  0
   -9.8800   16.7730    3.6720 C   0  0  0  0  0  0  0  0  0  0  0  0
  -10.8100   16.6680    2.7180 N   0  0  0  0  0  0  0  0  0  0  0  0
   -8.8770   15.8490    3.5960 N   0  0  0  0  0  0  0  0  0  0  0  0
  -10.3680   15.5810    1.9490 O   0  0  0  0  0  0  0  0  0  0  0  0
   -9.2050   15.1420    2.5410 C   0  0  0  0  0  0  0  0  0  0  0  0
   -8.4960   13.9710    1.9450 C   0  0  0  0  0  0  0  0  0  0  0  0
   -7.0980   14.2620    1.6330 N   0  0  0  0  0  0  0  0  0  0  0  0
   -6.7470   14.4620    0.3060 C   0  0  0  0  0  0  0  0  0  0  0  0
   -7.5910   14.7460   -0.5320 O   0  0  0  0  0  0  0  0  0  0  0  0
   -5.2770   14.3280   -0.1470 C   0  0  2  0  0  0  0  0  0  0  0  0
   -4.3490   13.7650    0.8840 C   0  0  0  0  0  0  0  0  0  0  0  0
   -4.7970   15.6410   -0.7450 C   0  0  0  0  0  0  0  0  0  0  0  0
   -3.0240   14.0010    0.8640 C   0  0  0  0  0  0  0  0  0  0  0  0
   -3.2680   15.7910   -0.9120 C   0  0  2  0  0  0  0  0  0  0  0  0
   -2.9010   15.8560   -2.3700 C   0  0  0  0  0  0  0  0  0  0  0  0
   -2.3220   14.8650   -0.1640 C   0  0  1  0  0  0  0  0  0  0  0  0
   -1.7950   16.0300   -2.8260 O   0  0  0  0  0  0  0  0  0  0  0  0
   -3.9550   15.7040   -3.1980 O   0  0  0  0  0  0  0  0  0  0  0  0
   -1.4510   15.6230    0.7880 N   0  0  0  0  0  0  0  0  0  0  0  0
   -1.0930   14.6050   -1.1580 C   0  0  2  0  0  0  0  0  0  0  0  0
   -1.1590   14.0350   -2.5300 N   0  0  0  0  0  0  0  0  0  0  0  0
   -0.1290   13.9950   -0.2820 N   0  0  0  0  0  0  0  0  0  0  0  0
   -0.2400   14.7920    0.9230 C   0  0  0  0  0  0  0  0  0  0  0  0
   -0.1120   14.4830   -3.4930 C   0  0  1  0  0  0  0  0  0  0  0  0
   -2.4130   14.0360   -3.3310 C   0  0  0  0  0  0  0  0  0  0  0  0
    0.6740   13.3840   -4.1640 C   0  0  0  0  0  0  0  0  0  0  0  0
   -0.7650   15.3680   -4.5460 C   0  0  0  0  0  0  0  0  0  0  0  0
   -2.1880   14.8420   -4.6310 C   0  0  0  0  0  0  0  0  0  0  0  0
    1.9750   12.9030   -3.4830 C   0  0  0  0  0  0  0  0  0  0  0  0
    0.1560   11.9390   -3.9170 C   0  0  0  0  0  0  0  0  0  0  0  0
    1.6260   11.5550   -4.1120 C   0  0  0  0  0  0  0  0  0  0  0  0
  1  2  1  0
  2  3  2  0
  2  4  1  0
  3  5  1  0
  4  6  2  0
  5  6  1  0
  6  7  1  0
  7  8  1  0
  8  9  1  0
  9 10  2  0
 11  9  1  1
 11 12  1  0
 11 13  1  0
 12 14  2  0
 13 15  1  0
 15 16  1  6
 17 14  1  1
 15 17  1  0
 16 18  2  0
 16 19  1  0
 17 20  1  0
 17 21  1  0
 21 22  1  6
 21 23  1  0
 20 24  1  0
 23 24  1  0
 22 25  1  0
 22 26  1  0
 25 27  1  6
 25 28  1  0
 26 29  1  0
 28 29  1  0
 27 30  1  0
 27 31  1  0
 30 32  1  0
 31 32  1  0
M  END
