mac-x0224-mac-x0302
     RDKit          3D

 22 23  0  0  0  0  0  0  0  0999 V2000
   -4.3590   15.7780    1.8790 C   0  0  0  0  0  0  0  0  0  0  0  0
   -2.7290   15.0190    1.8370 S   0  0  0  0  0  0  0  0  0  0  0  0
   -2.4380   14.9910    0.1090 C   0  0  0  0  0  0  0  0  0  0  0  0
   -1.1970   14.5410   -0.3330 C   0  0  0  0  0  0  0  0  0  0  0  0
   -3.4200   15.4040   -0.7920 C   0  0  0  0  0  0  0  0  0  0  0  0
   -0.9390   14.4840   -1.6970 C   0  0  0  0  0  0  0  0  0  0  0  0
   -3.1520   15.3380   -2.1490 C   0  0  0  0  0  0  0  0  0  0  0  0
    0.3660   14.0090   -2.1580 C   0  0  0  0  0  0  0  0  0  0  0  0
   -1.9140   14.8660   -2.5820 C   0  0  0  0  0  0  0  0  0  0  0  0
   -1.6990   14.7640   -3.8840 O   0  0  0  0  0  0  0  0  0  0  0  0
    1.3050   13.7560   -1.4410 O   0  0  0  0  0  0  0  0  0  0  0  0
    0.4200   13.8900   -3.4900 O   0  0  0  0  0  0  0  0  0  0  0  0
   -2.7790   13.8900   -3.9450 N   0  0  0  0  0  0  0  0  0  0  0  0
   -3.9060   14.5030   -3.4270 C   0  0  0  0  0  0  0  0  0  0  0  0
   -4.4870   15.2090   -4.2180 O   0  0  0  0  0  0  0  0  0  0  0  0
   -4.4710   14.4020   -2.0190 C   0  0  0  0  0  0  0  0  0  0  0  0
   -5.7510   14.9140   -1.7790 C   0  0  0  0  0  0  0  0  0  0  0  0
   -3.7730   13.8120   -0.9350 C   0  0  0  0  0  0  0  0  0  0  0  0
   -6.3140   14.8410   -0.5120 C   0  0  0  0  0  0  0  0  0  0  0  0
   -4.3610   13.7520    0.3450 C   0  0  0  0  0  0  0  0  0  0  0  0
   -7.5630   15.3320   -0.2950 O   0  0  0  0  0  0  0  0  0  0  0  0
   -5.6400   14.2710    0.5520 C   0  0  0  0  0  0  0  0  0  0  0  0
  1  2  1  0
  2  3  1  0
  3  4  2  0
  3  5  1  0
  4  6  1  0
  5  7  2  0
  6  8  1  0
  6  9  2  0
  7  9  1  0
  9 10  1  0
  8 11  2  0
  8 12  1  0
 10 13  1  0
 13 14  1  0
 14 15  2  0
 14 16  1  0
 16 17  2  0
 16 18  1  0
 17 19  1  0
 18 20  2  0
 19 21  1  0
 19 22  2  0
 20 22  1  0
M  END
