mac-x0213-mac-x0398
     RDKit          3D

 23 25  0  0  0  0  0  0  0  0999 V2000
   -0.1610   11.6310   -2.9370 O   0  0  0  0  0  0  0  0  0  0  0  0
    0.2400   12.9080   -2.7430 C   0  0  0  0  0  0  0  0  0  0  0  0
    0.7440   13.2470   -1.6850 O   0  0  0  0  0  0  0  0  0  0  0  0
    0.0170   13.8820   -3.8850 C   0  0  1  0  0  0  0  0  0  0  0  0
   -1.4500   14.3700   -3.9770 C   0  0  1  0  0  0  0  0  0  0  0  0
    0.9180   15.1330   -3.8080 C   0  0  0  0  0  0  0  0  0  0  0  0
   -2.0540   14.5940   -2.6820 O   0  0  0  0  0  0  0  0  0  0  0  0
   -1.2580   15.7180   -4.6160 C   0  0  0  0  0  0  0  0  0  0  0  0
    0.0690   16.1490   -4.5180 C   0  0  0  0  0  0  0  0  0  0  0  0
   -3.3290   15.0700   -2.7690 C   0  0  0  0  0  0  0  0  0  0  0  0
   -2.2180   16.5020   -5.2410 C   0  0  0  0  0  0  0  0  0  0  0  0
    0.4590   17.3720   -5.0350 C   0  0  0  0  0  0  0  0  0  0  0  0
   -3.8510   15.4850   -3.7860 O   0  0  0  0  0  0  0  0  0  0  0  0
   -1.8330   17.7340   -5.7650 C   0  0  0  0  0  0  0  0  0  0  0  0
   -0.5040   18.1650   -5.6610 C   0  0  0  0  0  0  0  0  0  0  0  0
   -4.0940   15.0240   -1.5000 C   0  0  0  0  0  0  0  0  0  0  0  0
   -5.4880   15.0870   -1.5070 C   0  0  0  0  0  0  0  0  0  0  0  0
   -3.4200   14.9120   -0.2710 C   0  0  0  0  0  0  0  0  0  0  0  0
   -6.1650   15.1980   -2.6880 O   0  0  0  0  0  0  0  0  0  0  0  0
   -6.2110   15.0310   -0.3220 C   0  0  0  0  0  0  0  0  0  0  0  0
   -4.1540   14.8580    0.9220 C   0  0  0  0  0  0  0  0  0  0  0  0
   -5.5540   14.9140    0.8990 C   0  0  0  0  0  0  0  0  0  0  0  0
   -6.3060   14.8510    2.0760 N   0  0  0  0  0  0  0  0  0  0  0  0
  1  2  1  0
  2  3  2  0
  4  2  1  1
  4  5  1  0
  4  6  1  0
  5  7  1  1
  5  8  1  0
  6  9  1  0
  8  9  2  0
  7 10  1  0
  8 11  1  0
  9 12  1  0
 10 13  2  0
 11 14  2  0
 12 15  2  0
 14 15  1  0
 10 16  1  0
 16 17  2  0
 16 18  1  0
 17 19  1  0
 17 20  1  0
 18 21  2  0
 20 22  2  0
 21 22  1  0
 22 23  1  0
M  END
