mac-x0587-mac-x0206
     RDKit          3D

 25 27  0  0  0  0  0  0  0  0999 V2000
    0.3030   16.3430   -4.4500 C   0  0  0  0  0  0  0  0  0  0  0  0
   -0.2330   15.0260   -3.8900 C   0  0  2  0  0  0  0  0  0  0  0  0
    0.1600   13.6690   -5.0920 S   0  0  0  0  0  0  0  0  0  0  0  0
   -1.7680   15.1110   -3.6730 C   0  0  0  0  0  0  0  0  0  0  0  0
   -0.4320   12.2510   -4.1310 C   0  0  0  0  0  0  0  0  0  0  0  0
   -2.5220   15.4030   -4.6060 O   0  0  0  0  0  0  0  0  0  0  0  0
   -2.2620   14.8530   -2.4130 N   0  0  0  0  0  0  0  0  0  0  0  0
    0.5800   11.6580   -3.1850 C   0  0  0  0  0  0  0  0  0  0  0  0
   -3.5390   14.2830   -2.1710 C   0  0  1  0  0  0  0  0  0  0  0  0
   -1.5190   14.7840   -1.2190 C   0  0  0  0  0  0  0  0  0  0  0  0
    0.6270   10.4860   -2.8540 O   0  0  0  0  0  0  0  0  0  0  0  0
    1.4720   12.5370   -2.6880 O   0  0  0  0  0  0  0  0  0  0  0  0
   -0.3210   14.8030   -1.0220 O   0  0  0  0  0  0  0  0  0  0  0  0
   -3.7190   14.3610   -0.6640 C   0  0  1  0  0  0  0  0  0  0  0  0
   -2.4120   14.6930   -0.1570 N   0  0  0  0  0  0  0  0  0  0  0  0
   -4.6020   15.0310   -2.8460 N   0  0  0  0  0  0  0  0  0  0  0  0
   -4.7400   15.4270   -0.4960 C   0  0  1  0  0  0  0  0  0  0  0  0
   -5.2190   15.6180   -1.8920 C   0  0  0  0  0  0  0  0  0  0  0  0
   -5.9020   15.0590    0.3310 C   0  0  0  0  0  0  0  0  0  0  0  0
   -7.1250   14.7530   -0.2790 C   0  0  0  0  0  0  0  0  0  0  0  0
   -5.8140   15.0170    1.7130 C   0  0  0  0  0  0  0  0  0  0  0  0
   -7.2260   14.7840   -1.6430 O   0  0  0  0  0  0  0  0  0  0  0  0
   -8.2370   14.4210    0.4800 C   0  0  0  0  0  0  0  0  0  0  0  0
   -6.9270   14.6850    2.4780 C   0  0  0  0  0  0  0  0  0  0  0  0
   -8.1340   14.3890    1.8650 C   0  0  0  0  0  0  0  0  0  0  0  0
  2  1  1  6
  2  3  1  0
  2  4  1  0
  3  5  1  0
  4  6  2  0
  4  7  1  0
  5  8  1  0
  7  9  1  0
  7 10  1  0
  8 11  2  0
  8 12  1  0
 10 13  2  0
  9 14  1  0
 10 15  1  0
 14 15  1  1
  9 16  1  6
 14 17  1  0
 16 18  2  0
 17 18  1  0
 17 19  1  1
 19 20  2  0
 19 21  1  0
 20 22  1  0
 20 23  1  0
 21 24  2  0
 23 25  2  0
 24 25  1  0
M  END
