mac-x0437-mac-x0282
     RDKit          3D

 25 28  0  0  0  0  0  0  0  0999 V2000
    2.6800   12.6220   -2.5290 O   0  0  0  0  0  0  0  0  0  0  0  0
    1.4580   12.6490   -3.1940 C   0  0  0  0  0  0  0  0  0  0  0  0
    0.8340   11.3940   -2.9710 O   0  0  0  0  0  0  0  0  0  0  0  0
    1.6500   12.9560   -4.6880 C   0  0  0  0  0  0  0  0  0  0  0  0
    0.5500   13.7120   -2.5760 C   0  0  0  0  0  0  0  0  0  0  0  0
    0.3590   13.1960   -5.4770 C   0  0  0  0  0  0  0  0  0  0  0  0
    0.9120   14.2750   -1.1960 C   0  0  0  0  0  0  0  0  0  0  0  0
   -0.4700   12.0270   -5.6550 N   0  0  0  0  0  0  0  0  0  0  0  0
   -0.3280   14.4630   -0.4090 C   0  0  0  0  0  0  0  0  0  0  0  0
   -1.6050   11.7350   -4.9480 C   0  0  0  0  0  0  0  0  0  0  0  0
   -0.2600   11.0210   -6.5560 C   0  0  0  0  0  0  0  0  0  0  0  0
   -1.4660   14.7520   -1.1380 C   0  0  0  0  0  0  0  0  0  0  0  0
   -0.4270   14.3670    0.9860 C   0  0  0  0  0  0  0  0  0  0  0  0
   -2.1380   10.5990   -5.3380 N   0  0  0  0  0  0  0  0  0  0  0  0
   -1.3140   10.1390   -6.3380 C   0  0  0  0  0  0  0  0  0  0  0  0
    0.7250   10.7990   -7.5190 C   0  0  0  0  0  0  0  0  0  0  0  0
   -2.6560   14.9280   -0.4570 C   0  0  0  0  0  0  0  0  0  0  0  0
   -1.5600   14.5260    1.7010 N   0  0  0  0  0  0  0  0  0  0  0  0
   -1.4010    8.9730   -7.1090 C   0  0  0  0  0  0  0  0  0  0  0  0
    0.6250    9.6330   -8.2800 C   0  0  0  0  0  0  0  0  0  0  0  0
   -3.9820   15.2270   -0.8290 C   0  0  0  0  0  0  0  0  0  0  0  0
   -2.6220   14.7980    0.9240 C   0  0  0  0  0  0  0  0  0  0  0  0
   -0.4210    8.7300   -8.0790 C   0  0  0  0  0  0  0  0  0  0  0  0
   -4.7250   15.2600    0.3210 C   0  0  0  0  0  0  0  0  0  0  0  0
   -3.8910   14.9940    1.3760 N   0  0  0  0  0  0  0  0  0  0  0  0
  2  1  1  0
  2  3  1  0
  2  4  1  0
  2  5  1  0
  4  6  1  0
  5  7  1  0
  6  8  1  0
  7  9  1  0
  8 10  1  0
  8 11  1  0
  9 12  2  0
  9 13  1  0
 10 14  2  0
 11 15  2  0
 14 15  1  0
 11 16  1  0
 12 17  1  0
 13 18  2  0
 15 19  1  0
 16 20  2  0
 17 21  1  0
 17 22  2  0
 18 22  1  0
 19 23  2  0
 20 23  1  0
 21 24  2  0
 22 25  1  0
 24 25  1  0
M  END
