mac-x0555-mac-x0204
     RDKit          3D

 22 24  0  0  0  0  0  0  0  0999 V2000
   -7.4720   14.1370    2.6050 N   0  0  0  0  0  0  0  0  0  0  0  0
   -6.8160   14.4300    1.4050 C   0  0  0  0  0  0  0  0  0  0  0  0
   -7.4220   14.4340    0.1510 C   0  0  0  0  0  0  0  0  0  0  0  0
   -5.4690   14.7470    1.4270 C   0  0  0  0  0  0  0  0  0  0  0  0
   -4.7770   15.0530    0.2530 C   0  0  0  0  0  0  0  0  0  0  0  0
   -6.7820   14.7250   -1.0220 N   0  0  0  0  0  0  0  0  0  0  0  0
   -5.4630   15.0370   -0.9740 C   0  0  0  0  0  0  0  0  0  0  0  0
   -3.4230   15.3740    0.3060 C   0  0  0  0  0  0  0  0  0  0  0  0
   -4.7230   15.3580   -2.1380 C   0  0  0  0  0  0  0  0  0  0  0  0
   -2.7170   15.6880   -0.8410 C   0  0  0  0  0  0  0  0  0  0  0  0
   -3.3260   15.6960   -2.0870 C   0  0  0  0  0  0  0  0  0  0  0  0
   -2.4290   16.0760   -3.2930 C   0  0  0  0  0  0  0  0  0  0  0  0
   -2.0250   14.9460   -4.1770 C   0  0  0  0  0  0  0  0  0  0  0  0
   -0.9140   14.1030   -3.9620 C   0  0  0  0  0  0  0  0  0  0  0  0
   -2.8130   14.7100   -5.2940 C   0  0  0  0  0  0  0  0  0  0  0  0
    0.0660   14.1990   -2.8620 C   0  0  0  0  0  0  0  0  0  0  0  0
   -3.8650   15.5360   -5.5520 O   0  0  0  0  0  0  0  0  0  0  0  0
   -2.5250   13.6540   -6.1270 C   0  0  0  0  0  0  0  0  0  0  0  0
   -0.7030   13.0650   -4.8560 C   0  0  0  0  0  0  0  0  0  0  0  0
    0.4270   12.9950   -2.3840 O   0  0  0  0  0  0  0  0  0  0  0  0
    0.5040   15.2580   -2.4500 O   0  0  0  0  0  0  0  0  0  0  0  0
   -1.4930   12.8190   -5.9270 N   0  0  0  0  0  0  0  0  0  0  0  0
  1  2  1  0
  2  3  2  0
  2  4  1  0
  4  5  2  0
  3  6  1  0
  5  7  1  0
  6  7  2  0
  5  8  1  0
  7  9  1  0
  8 10  2  0
  9 11  2  0
 10 11  1  0
 11 12  1  0
 12 13  1  0
 13 14  2  0
 13 15  1  0
 14 16  1  0
 15 17  1  0
 15 18  2  0
 14 19  1  0
 16 20  1  0
 16 21  2  0
 18 22  1  0
 19 22  2  0
M  END
