mac-x0223-mac-x0411
     RDKit          3D

 23 24  0  0  0  0  0  0  0  0999 V2000
    1.1860   18.4000   -5.6620 C   0  0  0  0  0  0  0  0  0  0  0  0
    0.2450   18.0540   -4.6650 O   0  0  0  0  0  0  0  0  0  0  0  0
   -0.2270   16.7750   -4.7430 C   0  0  0  0  0  0  0  0  0  0  0  0
   -1.6060   16.7100   -4.8490 C   0  0  0  0  0  0  0  0  0  0  0  0
    0.5230   15.5910   -4.7240 C   0  0  0  0  0  0  0  0  0  0  0  0
   -2.3260   17.8750   -4.8590 O   0  0  0  0  0  0  0  0  0  0  0  0
   -2.2650   15.4960   -4.9410 C   0  0  0  0  0  0  0  0  0  0  0  0
   -0.1150   14.3220   -4.8120 C   0  0  0  0  0  0  0  0  0  0  0  0
    0.7290   13.0160   -4.7770 C   0  0  1  0  0  0  0  0  0  0  0  0
   -1.5220   14.3090   -4.9250 C   0  0  0  0  0  0  0  0  0  0  0  0
    0.8450   12.3410   -3.3510 C   0  0  2  0  0  0  0  0  0  0  0  0
    0.3820   12.1090   -5.9200 O   0  0  0  0  0  0  0  0  0  0  0  0
   -0.0100   11.1210   -3.1280 N   0  0  0  0  0  0  0  0  0  0  0  0
    0.7290   13.3350   -2.3130 O   0  0  0  0  0  0  0  0  0  0  0  0
   -0.6020   11.1130   -5.9240 C   0  0  0  0  0  0  0  0  0  0  0  0
    0.5380   10.3650   -2.3170 O   0  0  0  0  0  0  0  0  0  0  0  0
   -1.7360   11.2220   -5.0950 C   0  0  0  0  0  0  0  0  0  0  0  0
   -0.5270    9.9590   -6.7560 C   0  0  0  0  0  0  0  0  0  0  0  0
    0.7700    9.6350   -7.8580 Cl  0  0  0  0  0  0  0  0  0  0  0  0
   -1.9870   12.5540   -4.0300 Cl  0  0  0  0  0  0  0  0  0  0  0  0
   -2.7330   10.2410   -5.0920 C   0  0  0  0  0  0  0  0  0  0  0  0
   -1.5320    8.9840   -6.7400 C   0  0  0  0  0  0  0  0  0  0  0  0
   -2.6330    9.1280   -5.9080 C   0  0  0  0  0  0  0  0  0  0  0  0
  1  2  1  0
  2  3  1  0
  3  4  2  0
  3  5  1  0
  4  6  1  0
  4  7  1  0
  5  8  2  0
  8  9  1  0
  7 10  2  0
  8 10  1  0
  9 11  1  0
  9 12  1  6
 11 13  1  0
 11 14  1  1
 12 15  1  0
 13 16  2  0
 15 17  2  0
 15 18  1  0
 18 19  1  0
 17 20  1  0
 17 21  1  0
 18 22  2  0
 21 23  2  0
 22 23  1  0
M  END
