mac-x0124-mac-x0565
     RDKit          3D

 18 20  0  0  0  0  0  0  0  0999 V2000
   -0.2440   14.6850   -3.1590 C   0  0  0  0  0  0  0  0  0  0  0  0
   -1.3630   14.7640   -2.2470 N   0  0  0  0  0  0  0  0  0  0  0  0
   -2.6860   14.8190   -2.6140 C   0  0  0  0  0  0  0  0  0  0  0  0
   -1.2590   14.7950   -0.9020 C   0  0  0  0  0  0  0  0  0  0  0  0
   -3.4810   14.8960   -1.4460 C   0  0  0  0  0  0  0  0  0  0  0  0
   -2.5380   14.8890   -0.3500 C   0  0  0  0  0  0  0  0  0  0  0  0
   -0.0910   14.7450   -0.2510 N   0  0  0  0  0  0  0  0  0  0  0  0
   -3.2140   14.8020   -3.8960 C   0  0  0  0  0  0  0  0  0  0  0  0
   -2.5690   14.9520    1.0450 C   0  0  0  0  0  0  0  0  0  0  0  0
   -0.2730   14.7940    1.0650 C   0  0  0  0  0  0  0  0  0  0  0  0
   -4.9070   14.9540   -1.6310 C   0  0  0  0  0  0  0  0  0  0  0  0
   -4.5870   14.8570   -4.0420 C   0  0  0  0  0  0  0  0  0  0  0  0
   -3.6960   15.0910    1.8070 N   0  0  0  0  0  0  0  0  0  0  0  0
   -5.9270   15.0250   -0.5540 C   0  0  0  0  0  0  0  0  0  0  0  0
   -1.4210   14.8880    1.7290 N   0  0  0  0  0  0  0  0  0  0  0  0
   -5.4200   14.9320   -2.9360 C   0  0  0  0  0  0  0  0  0  0  0  0
   -5.4030   15.1670    0.6690 O   0  0  0  0  0  0  0  0  0  0  0  0
   -7.1380   14.9560   -0.7050 O   0  0  0  0  0  0  0  0  0  0  0  0
  1  2  1  0
  2  3  1  0
  2  4  1  0
  3  5  2  0
  4  6  2  0
  5  6  1  0
  4  7  1  0
  3  8  1  0
  6  9  1  0
  7 10  2  0
  5 11  1  0
  8 12  2  0
  9 13  1  0
 11 14  1  0
  9 15  2  0
 10 15  1  0
 11 16  2  0
 12 16  1  0
 14 17  1  0
 14 18  2  0
M  END
