mac-x0179-mac-x0182
     RDKit          3D

 15 16  0  0  0  0  0  0  0  0999 V2000
    1.4790   12.9110   -2.2080 O   0  0  0  0  0  0  0  0  0  0  0  0
    0.9020   12.1510   -3.1600 C   0  0  0  0  0  0  0  0  0  0  0  0
    0.6400   10.9750   -2.9540 O   0  0  0  0  0  0  0  0  0  0  0  0
    0.6170   12.8560   -4.4800 C   0  0  0  0  0  0  0  0  0  0  0  0
    0.0140   11.9780   -5.4560 N   0  0  0  0  0  0  0  0  0  0  0  0
    0.7060   11.4870   -6.5180 C   0  0  0  0  0  0  0  0  0  0  0  0
   -1.0950   11.2220   -5.2130 C   0  0  0  0  0  0  0  0  0  0  0  0
    1.7770   11.8400   -6.9270 O   0  0  0  0  0  0  0  0  0  0  0  0
   -1.8620   11.3570   -4.2750 O   0  0  0  0  0  0  0  0  0  0  0  0
   -0.0840   10.3940   -7.0840 C   0  0  0  0  0  0  0  0  0  0  0  0
   -1.1950   10.2290   -6.2770 C   0  0  0  0  0  0  0  0  0  0  0  0
    0.1390    9.6080   -8.1970 C   0  0  0  0  0  0  0  0  0  0  0  0
   -2.1510    9.2680   -6.5340 C   0  0  0  0  0  0  0  0  0  0  0  0
   -0.8140    8.6260   -8.4790 C   0  0  0  0  0  0  0  0  0  0  0  0
   -1.9490    8.4560   -7.6560 C   0  0  0  0  0  0  0  0  0  0  0  0
  1  2  1  0
  2  3  2  0
  2  4  1  0
  4  5  1  0
  5  6  1  0
  5  7  1  0
  6  8  2  0
  7  9  2  0
  6 10  1  0
  7 11  1  0
 10 11  2  0
 10 12  1  0
 11 13  1  0
 12 14  2  0
 13 15  2  0
 14 15  1  0
M  END
