mac-x0396-mac-x0436
     RDKit          3D

 27 29  0  0  0  0  0  0  0  0999 V2000
   -3.1470   15.1060    1.2830 N   0  0  0  0  0  0  0  0  0  0  0  0
   -3.5620   14.8770   -0.0160 C   0  0  0  0  0  0  0  0  0  0  0  0
   -2.7520   14.7120   -1.0420 N   0  0  0  0  0  0  0  0  0  0  0  0
   -5.0480   14.8200   -0.1630 C   0  0  0  0  0  0  0  0  0  0  0  0
   -3.2110   14.4470   -2.4310 C   0  0  0  0  0  0  0  0  0  0  0  0
   -5.7290   14.9980   -1.3560 C   0  0  0  0  0  0  0  0  0  0  0  0
   -5.8080   14.5720    0.9810 C   0  0  0  0  0  0  0  0  0  0  0  0
   -2.1000   13.7610   -3.2850 C   0  0  0  0  0  0  0  0  0  0  0  0
   -7.0850   14.9340   -1.4560 N   0  0  0  0  0  0  0  0  0  0  0  0
   -7.1920   14.5030    0.9080 C   0  0  0  0  0  0  0  0  0  0  0  0
   -2.5330   12.4230   -3.7850 N   0  0  0  0  0  0  0  0  0  0  0  0
   -7.7840   14.6890   -0.3250 C   0  0  0  0  0  0  0  0  0  0  0  0
   -1.9230   11.6600   -4.6860 C   0  0  0  0  0  0  0  0  0  0  0  0
   -0.5850   12.0700   -5.3890 C   0  0  0  0  0  0  0  0  0  0  0  0
   -2.4320   10.4370   -5.0750 N   0  0  0  0  0  0  0  0  0  0  0  0
    0.1670   13.3290   -5.0020 C   0  0  0  0  0  0  0  0  0  0  0  0
   -1.8740    9.6960   -6.1320 C   0  0  0  0  0  0  0  0  0  0  0  0
   -0.0590   11.3340   -6.3410 N   0  0  0  0  0  0  0  0  0  0  0  0
    1.4620   12.9680   -4.2790 C   0  0  0  0  0  0  0  0  0  0  0  0
   -0.7000   10.1510   -6.7510 C   0  0  0  0  0  0  0  0  0  0  0  0
   -2.4810    8.5130   -6.5720 C   0  0  0  0  0  0  0  0  0  0  0  0
    1.2090   12.3980   -2.9040 C   0  0  0  0  0  0  0  0  0  0  0  0
   -0.1480    9.4130   -7.8040 C   0  0  0  0  0  0  0  0  0  0  0  0
   -1.9250    7.7840   -7.6240 C   0  0  0  0  0  0  0  0  0  0  0  0
    0.7230   11.1410   -2.8760 O   0  0  0  0  0  0  0  0  0  0  0  0
    1.4180   13.0140   -1.8760 O   0  0  0  0  0  0  0  0  0  0  0  0
   -0.7550    8.2340   -8.2410 C   0  0  0  0  0  0  0  0  0  0  0  0
  1  2  1  0
  2  3  2  3
  2  4  1  0
  3  5  1  0
  4  6  2  0
  4  7  1  0
  5  8  1  0
  6  9  1  0
  7 10  2  0
  8 11  1  0
  9 12  2  0
 10 12  1  0
 11 13  2  3
 13 14  1  0
 13 15  1  0
 14 16  1  0
 15 17  1  0
 14 18  2  0
 16 19  1  0
 17 20  2  0
 18 20  1  0
 17 21  1  0
 19 22  1  0
 20 23  1  0
 21 24  2  0
 22 25  1  0
 22 26  2  0
 23 27  2  0
 24 27  1  0
M  END
