mac-x1493-mac-x0375
     RDKit          3D

 26 28  0  0  0  0  0  0  0  0999 V2000
   -1.2610   14.8610   -1.4340 O   0  0  0  0  0  0  0  0  0  0  0  0
   -2.2430   14.8160   -2.3420 C   0  0  0  0  0  0  0  0  0  0  0  0
   -1.9030   14.7800   -3.5820 N   0  0  0  0  0  0  0  0  0  0  0  0
   -3.5400   14.8030   -1.6690 C   0  0  0  0  0  0  0  0  0  0  0  0
   -0.4710   14.7720   -3.9270 C   0  0  0  0  0  0  0  0  0  0  0  0
   -3.6250   14.9080   -0.2820 C   0  0  0  0  0  0  0  0  0  0  0  0
   -4.7070   14.6730   -2.3970 C   0  0  0  0  0  0  0  0  0  0  0  0
   -0.2180   13.8070   -5.1020 C   0  0  0  0  0  0  0  0  0  0  0  0
   -4.8820   14.8580    0.3250 C   0  0  0  0  0  0  0  0  0  0  0  0
   -5.9370   14.6270   -1.8330 N   0  0  0  0  0  0  0  0  0  0  0  0
    0.8940   12.7360   -4.9160 C   0  0  1  0  0  0  0  0  0  0  0  0
   -6.0240   14.7100   -0.4950 C   0  0  0  0  0  0  0  0  0  0  0  0
   -5.0300   14.9450    1.7140 C   0  0  0  0  0  0  0  0  0  0  0  0
    0.9330   12.1420   -3.5070 C   0  0  0  0  0  0  0  0  0  0  0  0
    0.6990   11.7280   -5.9220 O   0  0  0  0  0  0  0  0  0  0  0  0
   -7.2720   14.6460    0.1060 C   0  0  0  0  0  0  0  0  0  0  0  0
   -6.2980   14.8770    2.2920 C   0  0  0  0  0  0  0  0  0  0  0  0
    1.4970   12.9390   -2.5790 O   0  0  0  0  0  0  0  0  0  0  0  0
    0.5250   11.0360   -3.1820 O   0  0  0  0  0  0  0  0  0  0  0  0
   -7.4230   14.7240    1.4910 C   0  0  0  0  0  0  0  0  0  0  0  0
   -0.4360   10.9580   -5.9450 C   0  0  0  0  0  0  0  0  0  0  0  0
   -0.3590    9.8420   -6.7890 C   0  0  0  0  0  0  0  0  0  0  0  0
   -1.6160   11.1780   -5.2340 C   0  0  0  0  0  0  0  0  0  0  0  0
   -1.4360    8.9630   -6.9190 C   0  0  0  0  0  0  0  0  0  0  0  0
   -2.6970   10.2980   -5.3650 C   0  0  0  0  0  0  0  0  0  0  0  0
   -2.6070    9.1920   -6.2050 C   0  0  0  0  0  0  0  0  0  0  0  0
  1  2  1  0
  2  3  2  3
  2  4  1  0
  3  5  1  0
  4  6  2  0
  4  7  1  0
  5  8  1  0
  6  9  1  0
  7 10  2  0
 11  8  1  1
  9 12  2  0
 10 12  1  0
  9 13  1  0
 11 14  1  0
 11 15  1  0
 12 16  1  0
 13 17  2  0
 14 18  1  0
 14 19  2  0
 16 20  2  0
 17 20  1  0
 15 21  1  0
 21 22  2  0
 21 23  1  0
 22 24  1  0
 23 25  2  0
 24 26  2  0
 25 26  1  0
M  END
