mac-x0303-diamond-x0969_0_A
     RDKit          3D

 13 14  0  0  0  0  0  0  0  0999 V2000
   -8.4480   12.9380    2.6790 N   0  0  0  0  0  0  0  0  0  0  0  0
   -8.5570   14.5010    2.0340 S   0  0  0  0  0  0  0  0  0  0  0  0
   -8.3900   15.3890    3.1570 O   0  0  0  0  0  0  0  0  0  0  0  0
   -9.7270   14.5000    1.1960 O   0  0  0  0  0  0  0  0  0  0  0  0
   -7.1450   14.7030    1.0030 C   0  0  0  0  0  0  0  0  0  0  0  0
   -7.2290   14.9170   -0.3480 N   0  0  0  0  0  0  0  0  0  0  0  0
   -5.8890   14.6830    1.3910 N   0  0  0  0  0  0  0  0  0  0  0  0
   -5.9570   15.0410   -0.8410 C   0  0  0  0  0  0  0  0  0  0  0  0
   -5.1420   14.8890    0.2730 C   0  0  0  0  0  0  0  0  0  0  0  0
   -5.4640   15.2650   -2.1160 C   0  0  0  0  0  0  0  0  0  0  0  0
   -3.7550   14.9570    0.1310 C   0  0  0  0  0  0  0  0  0  0  0  0
   -4.0730   15.3300   -2.2450 C   0  0  0  0  0  0  0  0  0  0  0  0
   -3.2310   15.1760   -1.1450 C   0  0  0  0  0  0  0  0  0  0  0  0
  2  1  1  0
  2  3  2  0
  2  4  2  0
  2  5  1  0
  5  6  1  0
  5  7  2  0
  6  8  1  0
  7  9  1  0
  8  9  2  0
  8 10  1  0
  9 11  1  0
 10 12  2  0
 11 13  2  0
 12 13  1  0
M  END
