mac-x0436-mac-x0354
     RDKit          3D

 21 22  0  0  0  0  0  0  0  0999 V2000
    0.6660   10.9920   -3.3840 C   0  0  0  0  0  0  0  0  0  0  0  0
    0.8000   12.4140   -3.1100 C   0  0  0  0  0  0  0  0  0  0  0  0
    0.9830   12.8520   -1.9700 O   0  0  0  0  0  0  0  0  0  0  0  0
    0.0600   10.1990   -2.4040 O   0  0  0  0  0  0  0  0  0  0  0  0
    1.0820   10.4740   -4.5240 C   0  0  0  0  0  0  0  0  0  0  0  0
    0.7110   13.2090   -4.3330 C   0  0  0  0  0  0  0  0  0  0  0  0
    1.7590   11.1860   -5.6460 C   0  0  0  0  0  0  0  0  0  0  0  0
   -0.2770   13.1070   -5.2730 C   0  0  0  0  0  0  0  0  0  0  0  0
    1.6970   11.1630   -6.9420 N   0  0  0  0  0  0  0  0  0  0  0  0
   -1.5220   12.3160   -5.4760 C   0  0  0  0  0  0  0  0  0  0  0  0
    0.8610   10.3750   -7.7370 N   0  0  0  0  0  0  0  0  0  0  0  0
    0.5480   11.0780   -8.9980 C   0  0  0  0  0  0  0  0  0  0  0  0
   -2.7810   12.9220   -5.0460 C   0  0  0  0  0  0  0  0  0  0  0  0
   -2.0360   11.1200   -5.9620 C   0  0  0  0  0  0  0  0  0  0  0  0
    0.7650    8.9680   -7.8690 C   0  0  0  0  0  0  0  0  0  0  0  0
   -2.9460   13.9510   -4.4590 O   0  0  0  0  0  0  0  0  0  0  0  0
   -3.4070   10.9090   -5.9300 N   0  0  0  0  0  0  0  0  0  0  0  0
   -0.3000    8.2110   -7.5670 C   0  0  0  0  0  0  0  0  0  0  0  0
   -1.3130   10.0630   -6.5470 C   0  0  0  0  0  0  0  0  0  0  0  0
   -3.8790   11.9820   -5.4160 C   0  0  0  0  0  0  0  0  0  0  0  0
   -1.4470    8.8400   -7.0430 C   0  0  0  0  0  0  0  0  0  0  0  0
  1  2  1  0
  2  3  2  0
  1  4  1  0
  1  5  2  0
  2  6  1  0
  5  7  1  0
  6  8  2  0
  7  9  2  0
  8 10  1  0
  9 11  1  0
 11 12  1  0
 10 13  1  0
 10 14  2  0
 11 15  1  0
 13 16  2  0
 14 17  1  0
 15 18  2  0
 14 19  1  0
 13 20  1  0
 17 20  2  0
 18 21  1  0
 19 21  2  0
M  END
