mac-x0380-mac-x0159
     RDKit          3D

 24 27  0  0  0  0  0  0  0  0999 V2000
   -1.2760   15.2130   -2.9130 O   0  0  0  0  0  0  0  0  0  0  0  0
   -2.6440   15.1180   -2.7880 C   0  0  0  0  0  0  0  0  0  0  0  0
   -3.4110   14.7170   -3.6540 O   0  0  0  0  0  0  0  0  0  0  0  0
   -0.7840   16.1270   -3.8010 C   0  0  0  0  0  0  0  0  0  0  0  0
   -3.1240   15.6150   -1.4070 C   0  0  1  0  0  0  0  0  0  0  0  0
    0.5740   16.3890   -3.8830 C   0  0  0  0  0  0  0  0  0  0  0  0
   -1.5610   16.8600   -4.6780 N   0  0  0  0  0  0  0  0  0  0  0  0
   -4.6800   15.6650   -1.3770 C   0  0  0  0  0  0  0  0  0  0  0  0
   -2.4580   14.9490   -0.1710 C   0  0  2  0  0  0  0  0  0  0  0  0
   -0.8110   17.6670   -5.3950 C   0  0  0  0  0  0  0  0  0  0  0  0
    0.8670   17.5900   -5.0740 S   0  0  0  0  0  0  0  0  0  0  0  0
   -1.3210   18.6040   -6.4290 C   0  0  0  0  0  0  0  0  0  0  0  0
   -5.4140   14.5490   -0.6460 C   0  0  1  0  0  0  0  0  0  0  0  0
   -3.4270   14.6930    1.0370 C   0  0  0  0  0  0  0  0  0  0  0  0
   -1.4170   15.8690    0.3980 N   0  0  0  0  0  0  0  0  0  0  0  0
   -1.5560   13.7600   -0.5770 C   0  0  0  0  0  0  0  0  0  0  0  0
   -4.9030   14.2930    0.7860 C   0  0  1  0  0  0  0  0  0  0  0  0
   -7.2200   14.8870   -0.7680 S   0  0  0  0  0  0  0  0  0  0  0  0
   -0.1670   14.2180   -0.4110 N   0  0  0  0  0  0  0  0  0  0  0  0
   -0.2800   15.0400    0.7530 C   0  0  0  0  0  0  0  0  0  0  0  0
   -5.7590   14.8420    1.8510 N   0  0  0  0  0  0  0  0  0  0  0  0
   -7.7720   14.0080    0.7150 C   0  0  0  0  0  0  0  0  0  0  0  0
   -7.1040   14.5620    1.9460 C   0  0  0  0  0  0  0  0  0  0  0  0
   -7.7260   14.7690    2.9920 O   0  0  0  0  0  0  0  0  0  0  0  0
  1  2  1  0
  2  3  2  0
  1  4  1  0
  5  2  1  6
  4  6  2  0
  4  7  1  0
  5  8  1  0
  5  9  1  0
  7 10  2  0
  6 11  1  0
 10 11  1  0
 10 12  1  0
 13  8  1  1
  9 14  1  1
  9 15  1  0
  9 16  1  0
 13 17  1  0
 17 14  1  6
 13 18  1  0
 16 19  1  0
 15 20  1  0
 19 20  1  0
 17 21  1  0
 18 22  1  0
 21 23  1  0
 22 23  1  0
 23 24  2  0
M  END
