mac-x0348-mac-x0277
     RDKit          3D

 17 18  0  0  0  0  0  0  0  0999 V2000
   -0.6910   19.0380   -5.9010 C   0  0  0  0  0  0  0  0  0  0  0  0
   -1.1210   17.9650   -5.0240 N   0  0  0  0  0  0  0  0  0  0  0  0
   -0.1540   17.2070   -4.4160 C   0  0  0  0  0  0  0  0  0  0  0  0
   -1.6900   16.9580   -5.7910 C   0  0  1  0  0  0  0  0  0  0  0  0
    1.1290   18.1360   -4.0240 Cl  0  0  0  0  0  0  0  0  0  0  0  0
   -0.3790   15.8700   -4.2310 C   0  0  0  0  0  0  0  0  0  0  0  0
   -1.7630   15.7100   -4.8520 C   0  0  1  0  0  0  0  0  0  0  0  0
   -2.9780   17.2370   -6.4510 C   0  0  0  0  0  0  0  0  0  0  0  0
    0.5370   14.8510   -3.5620 C   0  0  0  0  0  0  0  0  0  0  0  0
   -3.1000   15.8260   -3.6950 Cl  0  0  0  0  0  0  0  0  0  0  0  0
   -2.3240   14.5560   -5.5910 C   0  0  0  0  0  0  0  0  0  0  0  0
   -3.7560   16.1910   -6.7690 C   0  0  0  0  0  0  0  0  0  0  0  0
    0.3770   13.3540   -3.8800 C   0  0  0  0  0  0  0  0  0  0  0  0
   -3.3060   14.8240   -6.4940 C   0  0  0  0  0  0  0  0  0  0  0  0
    0.4010   12.4620   -2.6480 C   0  0  0  0  0  0  0  0  0  0  0  0
    0.6520   12.7830   -1.4890 O   0  0  0  0  0  0  0  0  0  0  0  0
    0.0990   11.1850   -2.9290 O   0  0  0  0  0  0  0  0  0  0  0  0
  1  2  1  0
  2  3  1  0
  2  4  1  0
  3  5  1  0
  3  6  2  0
  4  7  1  0
  6  7  1  0
  4  8  1  1
  6  9  1  0
  7 10  1  1
  7 11  1  0
  8 12  2  0
  9 13  1  0
 11 14  2  0
 12 14  1  0
 13 15  1  0
 15 16  2  0
 15 17  1  0
M  END
