mac-x0451-mac-x0321
     RDKit          3D

 14 15  0  0  0  0  0  0  0  0999 V2000
   -6.8970   14.7780    2.7640 N   0  0  0  0  0  0  0  0  0  0  0  0
   -6.0770   14.8050    1.7080 C   0  0  0  0  0  0  0  0  0  0  0  0
   -6.4760   14.8620    0.4590 N   0  0  0  0  0  0  0  0  0  0  0  0
   -4.3940   14.7630    1.9370 S   0  0  0  0  0  0  0  0  0  0  0  0
   -5.3820   14.8690   -0.3840 C   0  0  0  0  0  0  0  0  0  0  0  0
   -4.1640   14.8100    0.2510 C   0  0  0  0  0  0  0  0  0  0  0  0
   -5.3970   14.9260   -1.7910 C   0  0  0  0  0  0  0  0  0  0  0  0
   -2.9660   14.7900   -0.4040 C   0  0  0  0  0  0  0  0  0  0  0  0
   -1.6490   14.7110    0.6870 Cl  0  0  0  0  0  0  0  0  0  0  0  0
   -4.1810   14.9050   -2.4930 C   0  0  0  0  0  0  0  0  0  0  0  0
   -2.9570   14.8300   -1.8120 C   0  0  0  0  0  0  0  0  0  0  0  0
   -1.7490   14.7930   -2.6780 C   0  0  0  0  0  0  0  0  0  0  0  0
   -0.5710   14.7440   -2.0350 O   0  0  0  0  0  0  0  0  0  0  0  0
   -1.8370   14.7960   -3.8950 O   0  0  0  0  0  0  0  0  0  0  0  0
  1  2  1  0
  2  3  2  0
  2  4  1  0
  3  5  1  0
  4  6  1  0
  5  6  2  0
  5  7  1  0
  6  8  1  0
  8  9  1  0
  7 10  2  0
  8 11  2  0
 10 11  1  0
 11 12  1  0
 12 13  1  0
 12 14  2  0
M  END
