mac-x0159-diamond-x0421_0_A
     RDKit          3D

 27 31  0  0  0  0  0  0  0  0999 V2000
   -4.0580   14.8910    1.3230 N   0  0  0  0  0  0  0  0  0  0  0  0
   -3.3320   13.7540    0.7680 C   0  0  2  0  0  0  0  0  0  0  0  0
   -1.8080   14.0350    0.7180 C   0  0  1  0  0  0  0  0  0  0  0  0
   -4.0320   13.4250   -0.4460 N   0  0  0  0  0  0  0  0  0  0  0  0
   -3.1620   12.9490   -1.5260 C   0  0  0  0  0  0  0  0  0  0  0  0
   -1.0610   13.8510   -0.6240 C   0  0  1  0  0  0  0  0  0  0  0  0
   -1.4490   15.3660    1.1670 N   0  0  0  0  0  0  0  0  0  0  0  0
   -1.9370   13.6890   -1.7900 N   0  0  0  0  0  0  0  0  0  0  0  0
   -0.0380   14.9210   -0.5640 N   0  0  0  0  0  0  0  0  0  0  0  0
   -0.0680   15.3430    0.8220 C   0  0  0  0  0  0  0  0  0  0  0  0
   -2.0050   14.6540   -2.8440 C   0  0  0  0  0  0  0  0  0  0  0  0
   -3.1550   15.3330   -3.0590 C   0  0  0  0  0  0  0  0  0  0  0  0
   -0.8540   14.9540   -3.6780 C   0  0  0  0  0  0  0  0  0  0  0  0
   -3.2110   16.2330   -4.1230 N   0  0  0  0  0  0  0  0  0  0  0  0
    0.2620   14.1800   -3.8680 C   0  0  0  0  0  0  0  0  0  0  0  0
   -0.8640   16.1740   -4.3540 N   0  0  0  0  0  0  0  0  0  0  0  0
   -4.3150   15.1840   -2.2020 C   0  0  0  0  0  0  0  0  0  0  0  0
    0.2400   16.3290   -5.0280 C   0  0  0  0  0  0  0  0  0  0  0  0
    1.3330   15.0130   -4.9060 S   0  0  0  0  0  0  0  0  0  0  0  0
   -4.3490   15.6720   -0.9160 C   0  0  0  0  0  0  0  0  0  0  0  0
   -5.5040   14.5610   -2.5170 N   0  0  0  0  0  0  0  0  0  0  0  0
    0.5540   17.5410   -5.8370 C   0  0  0  0  0  0  0  0  0  0  0  0
   -5.5690   15.3410   -0.4330 N   0  0  0  0  0  0  0  0  0  0  0  0
   -6.2330   14.6790   -1.4110 C   0  0  0  0  0  0  0  0  0  0  0  0
   -7.6690   14.1390   -1.2150 C   0  0  0  0  0  0  0  0  0  0  0  0
   -8.4690   14.5930   -0.0210 C   0  0  0  0  0  0  0  0  0  0  0  0
   -7.9290   13.1900   -0.0680 C   0  0  0  0  0  0  0  0  0  0  0  0
  2  1  1  6
  2  3  1  0
  2  4  1  0
  4  5  1  0
  3  6  1  0
  3  7  1  6
  5  8  1  0
  6  8  1  0
  6  9  1  6
  7 10  1  0
  9 10  1  0
  8 11  1  0
 11 12  2  3
 11 13  1  0
 12 14  1  0
 13 15  2  0
 13 16  1  0
 12 17  1  0
 16 18  2  0
 15 19  1  0
 18 19  1  0
 17 20  2  0
 17 21  1  0
 18 22  1  0
 20 23  1  0
 21 24  2  0
 23 24  1  0
 24 25  1  0
 25 26  1  0
 25 27  1  0
 26 27  1  0
M  END
