mac-x0347-diamond-x0681_0_A
     RDKit          3D

 22 24  0  0  0  0  0  0  0  0999 V2000
    1.5310   14.4220   -3.3980 O   0  0  0  0  0  0  0  0  0  0  0  0
    0.6800   14.0820   -2.4100 C   0  0  0  0  0  0  0  0  0  0  0  0
    0.9890   13.4250   -1.4410 O   0  0  0  0  0  0  0  0  0  0  0  0
   -0.6780   14.5830   -2.6170 C   0  0  0  0  0  0  0  0  0  0  0  0
   -1.5460   14.7210   -1.5270 C   0  0  0  0  0  0  0  0  0  0  0  0
   -1.1180   14.9250   -3.8870 C   0  0  0  0  0  0  0  0  0  0  0  0
   -2.8360   15.2050   -1.7630 C   0  0  0  0  0  0  0  0  0  0  0  0
   -2.3530   15.3890   -4.1460 N   0  0  0  0  0  0  0  0  0  0  0  0
   -3.1720   15.5150   -3.0830 C   0  0  0  0  0  0  0  0  0  0  0  0
   -3.8850   15.4000   -0.6840 C   0  0  2  0  0  0  0  0  0  0  0  0
   -3.5470   15.6750    0.7430 C   0  0  0  0  0  0  0  0  0  0  0  0
   -4.5840   14.1120   -0.8670 C   0  0  2  0  0  0  0  0  0  0  0  0
   -4.8490   14.1570   -2.3350 C   0  0  0  0  0  0  0  0  0  0  0  0
   -4.3910   15.3010    1.7000 C   0  0  0  0  0  0  0  0  0  0  0  0
   -5.6440   13.6880    0.1550 C   0  0  2  0  0  0  0  0  0  0  0  0
   -5.8430   14.9630   -2.7660 N   0  0  0  0  0  0  0  0  0  0  0  0
   -4.1450   13.5280   -3.1260 O   0  0  0  0  0  0  0  0  0  0  0  0
   -5.6880   14.5690    1.4250 C   0  0  0  0  0  0  0  0  0  0  0  0
   -5.1300   12.3020    0.5230 C   0  0  0  0  0  0  0  0  0  0  0  0
   -6.9960   13.2670   -0.3950 C   0  0  0  0  0  0  0  0  0  0  0  0
   -5.5920   11.5990   -0.6690 N   0  0  0  0  0  0  0  0  0  0  0  0
   -6.8650   12.0270   -0.8700 C   0  0  0  0  0  0  0  0  0  0  0  0
  1  2  1  0
  2  3  2  0
  2  4  1  0
  4  5  2  0
  4  6  1  0
  5  7  1  0
  6  8  2  0
  7  9  2  0
  8  9  1  0
 10  7  1  6
 10 11  1  0
 10 12  1  0
 12 13  1  6
 11 14  2  0
 12 15  1  0
 13 16  1  0
 13 17  2  0
 14 18  1  0
 15 18  1  1
 15 19  1  0
 15 20  1  0
 19 21  1  0
 20 22  2  0
 21 22  1  0
M  END
