mac-x0354-diamond-x0626_0_A
     RDKit          3D

 29 31  0  0  0  0  0  0  0  0999 V2000
    0.5810   10.9850   -8.4930 C   0  0  0  0  0  0  0  0  0  0  0  0
    0.8610   11.4440   -7.1510 N   0  0  0  0  0  0  0  0  0  0  0  0
    1.8440   12.3110   -6.9370 N   0  0  0  0  0  0  0  0  0  0  0  0
    0.2180   11.0900   -6.0130 C   0  0  0  0  0  0  0  0  0  0  0  0
    1.8480   12.5290   -5.6650 C   0  0  0  0  0  0  0  0  0  0  0  0
    0.8630   11.8000   -5.0190 C   0  0  0  0  0  0  0  0  0  0  0  0
   -0.8780   10.1530   -6.0270 C   0  0  0  0  0  0  0  0  0  0  0  0
    0.7000   11.8790   -3.6400 C   0  0  0  0  0  0  0  0  0  0  0  0
   -0.6420    8.8240   -6.3870 C   0  0  0  0  0  0  0  0  0  0  0  0
   -2.1580   10.5690   -5.6910 C   0  0  0  0  0  0  0  0  0  0  0  0
    1.0490   12.9220   -3.0630 N   0  0  0  0  0  0  0  0  0  0  0  0
    0.2130   10.8270   -2.9480 O   0  0  0  0  0  0  0  0  0  0  0  0
   -1.6910    7.9160   -6.4070 C   0  0  0  0  0  0  0  0  0  0  0  0
   -3.2070    9.6590   -5.7150 C   0  0  0  0  0  0  0  0  0  0  0  0
    0.9670   13.0930   -1.6850 C   0  0  0  0  0  0  0  0  0  0  0  0
   -2.9760    8.3330   -6.0710 C   0  0  0  0  0  0  0  0  0  0  0  0
    0.0860   14.2720   -1.3970 C   0  0  0  0  0  0  0  0  0  0  0  0
    0.4880   14.5610    0.0110 C   0  0  0  0  0  0  0  0  0  0  0  0
   -0.5370   15.0820    0.9420 C   0  0  0  0  0  0  0  0  0  0  0  0
   -1.8890   14.9050    0.4280 C   0  0  0  0  0  0  0  0  0  0  0  0
   -2.8780   14.7770    1.3420 N   0  0  0  0  0  0  0  0  0  0  0  0
   -2.2880   14.8600   -0.8950 C   0  0  0  0  0  0  0  0  0  0  0  0
   -4.0010   14.6570    0.7290 C   0  0  0  0  0  0  0  0  0  0  0  0
   -3.9770   14.6690   -0.9750 S   0  0  0  0  0  0  0  0  0  0  0  0
   -5.2060   14.5220    1.2960 N   0  0  0  0  0  0  0  0  0  0  0  0
   -6.4060   14.5610    0.6890 C   0  0  0  0  0  0  0  0  0  0  0  0
   -6.4470   14.7670   -0.5280 O   0  0  0  0  0  0  0  0  0  0  0  0
   -7.6470   14.3540    1.5260 C   0  0  0  0  0  0  0  0  0  0  0  0
   -8.9000   14.7720    0.7850 C   0  0  0  0  0  0  0  0  0  0  0  0
  1  2  1  0
  2  3  1  0
  2  4  1  0
  3  5  2  0
  4  6  2  0
  5  6  1  0
  4  7  1  0
  6  8  1  0
  7  9  2  0
  7 10  1  0
  8 11  2  3
  8 12  1  0
  9 13  1  0
 10 14  2  0
 11 15  1  0
 13 16  2  0
 14 16  1  0
 15 17  1  0
 17 18  1  0
 18 19  1  0
 19 20  1  0
 20 21  1  0
 20 22  2  0
 21 23  2  0
 22 24  1  0
 23 24  1  0
 23 25  1  0
 25 26  1  0
 26 27  2  0
 26 28  1  0
 28 29  1  0
M  END
