mac-x0453-mac-x0360
     RDKit          3D

 19 20  0  0  0  0  0  0  0  0999 V2000
   -6.9140   14.3980    2.4580 N   0  0  0  0  0  0  0  0  0  0  0  0
   -5.9060   14.4360    1.3870 C   0  0  0  0  0  0  0  0  0  0  0  0
   -4.5430   15.0320    1.7710 C   0  0  0  0  0  0  0  0  0  0  0  0
   -3.6030   15.3720    0.6740 C   0  0  0  0  0  0  0  0  0  0  0  0
   -2.2380   15.5460    0.6800 C   0  0  0  0  0  0  0  0  0  0  0  0
   -3.9010   15.5640   -0.6100 N   0  0  0  0  0  0  0  0  0  0  0  0
   -1.7480   15.8370   -0.5710 N   0  0  0  0  0  0  0  0  0  0  0  0
   -2.7980   15.8410   -1.3340 C   0  0  0  0  0  0  0  0  0  0  0  0
   -5.1410   15.4540   -1.1860 N   0  0  0  0  0  0  0  0  0  0  0  0
   -4.5510   14.2260   -1.8120 S   0  0  0  0  0  0  0  0  0  0  0  0
   -3.1570   13.9030   -1.5560 O   0  0  0  0  0  0  0  0  0  0  0  0
   -5.3600   12.8160   -1.2300 C   0  0  0  0  0  0  0  0  0  0  0  0
   -5.1320   11.6880   -1.9760 C   0  0  0  0  0  0  0  0  0  0  0  0
   -6.1720   12.8330   -0.1040 C   0  0  0  0  0  0  0  0  0  0  0  0
   -5.7460   10.5280   -1.5970 C   0  0  0  0  0  0  0  0  0  0  0  0
   -6.7850   11.6490    0.2700 C   0  0  0  0  0  0  0  0  0  0  0  0
   -7.8000   11.5970    1.6560 Cl  0  0  0  0  0  0  0  0  0  0  0  0
   -5.4650    9.1190   -2.5370 Cl  0  0  0  0  0  0  0  0  0  0  0  0
   -6.5790   10.4950   -0.4800 C   0  0  0  0  0  0  0  0  0  0  0  0
  1  2  1  0
  2  3  1  0
  3  4  1  0
  4  5  2  0
  4  6  1  0
  5  7  1  0
  6  8  1  0
  7  8  2  0
  6  9  1  0
  9 10  2  0
 10 11  2  0
 10 12  1  0
 12 13  2  0
 12 14  1  0
 13 15  1  0
 14 16  2  0
 16 17  1  0
 15 18  1  0
 15 19  2  0
 16 19  1  0
M  END
