mac-x0224-mac-x0303
     RDKit          3D

 25 27  0  0  0  0  0  0  0  0999 V2000
   -3.5640   13.9240    1.8180 C   0  0  0  0  0  0  0  0  0  0  0  0
   -3.1390   15.2190    0.8080 S   0  0  1  0  0  0  0  0  0  0  0  0
   -2.4200   14.9060   -0.7080 C   0  0  0  0  0  0  0  0  0  0  0  0
   -4.4270   15.2440   -0.2430 C   0  0  0  0  0  0  0  0  0  0  0  0
   -1.1000   14.6140   -0.9070 C   0  0  0  0  0  0  0  0  0  0  0  0
   -3.3230   14.9870   -1.7620 C   0  0  0  0  0  0  0  0  0  0  0  0
   -5.7110   15.0380    0.1440 C   0  0  0  0  0  0  0  0  0  0  0  0
   -4.0830   15.4540   -1.5490 C   0  0  0  0  0  0  0  0  0  0  0  0
   -0.6850   14.4090   -2.2270 C   0  0  0  0  0  0  0  0  0  0  0  0
   -2.9110   14.7840   -3.0600 C   0  0  0  0  0  0  0  0  0  0  0  0
   -6.6750   15.0490   -0.8420 C   0  0  0  0  0  0  0  0  0  0  0  0
   -6.2330   14.8100    1.3760 N   0  0  0  0  0  0  0  0  0  0  0  0
   -5.0570   15.4470   -2.5110 C   0  0  0  0  0  0  0  0  0  0  0  0
    0.7270   14.1060   -2.4120 C   0  0  0  0  0  0  0  0  0  0  0  0
   -1.5930   14.5000   -3.2930 C   0  0  0  0  0  0  0  0  0  0  0  0
   -7.5180   14.6930    1.1590 C   0  0  0  0  0  0  0  0  0  0  0  0
   -7.8350   14.8260   -0.1630 N   0  0  0  0  0  0  0  0  0  0  0  0
   -6.3900   15.2490   -2.1840 C   0  0  0  0  0  0  0  0  0  0  0  0
   -1.2690   14.3240   -4.6080 O   0  0  0  0  0  0  0  0  0  0  0  0
    1.5690   14.1110   -1.5470 O   0  0  0  0  0  0  0  0  0  0  0  0
    1.0180   13.8080   -3.6900 O   0  0  0  0  0  0  0  0  0  0  0  0
   -8.7080   14.4090    2.4050 S   0  0  0  0  0  0  0  0  0  0  0  0
   -8.2210   12.9810    3.1500 N   0  0  0  0  0  0  0  0  0  0  0  0
   -8.5190   15.5070    3.3240 O   0  0  0  0  0  0  0  0  0  0  0  0
   -9.9380   14.2150    1.6810 O   0  0  0  0  0  0  0  0  0  0  0  0
  2  1  1  1
  2  3  1  0
  2  4  1  0
  3  5  2  0
  3  6  1  0
  4  7  1  0
  4  8  2  0
  5  9  1  0
  6 10  2  0
  7 11  2  0
  7 12  1  0
  8 13  1  0
  9 14  1  0
  9 15  2  0
 10 15  1  0
 12 16  2  0
 11 17  1  0
 16 17  1  0
 11 18  1  0
 13 18  2  0
 15 19  1  0
 14 20  2  0
 14 21  1  0
 16 22  1  0
 22 23  1  0
 22 24  2  0
 22 25  2  0
M  END
