mac-x0193-diamond-x0766_0_A
     RDKit          3D

 24 26  0  0  0  0  0  0  0  0999 V2000
   -1.1490   11.9970   -3.0100 O   0  0  0  0  0  0  0  0  0  0  0  0
    0.2000   12.2120   -3.3080 C   0  0  0  0  0  0  0  0  0  0  0  0
    0.9180   11.6940   -2.2000 O   0  0  0  0  0  0  0  0  0  0  0  0
    0.5540   11.4180   -4.5440 C   0  0  0  0  0  0  0  0  0  0  0  0
    0.7380   13.6100   -3.5060 C   0  0  1  0  0  0  0  0  0  0  0  0
   -0.1290   11.6860   -5.7960 N   0  0  0  0  0  0  0  0  0  0  0  0
    1.1100   13.9810   -4.9430 C   0  0  0  0  0  0  0  0  0  0  0  0
    0.0850   14.8500   -2.8640 C   0  0  1  0  0  0  0  0  0  0  0  0
    0.6700   11.4250   -6.8880 C   0  0  0  0  0  0  0  0  0  0  0  0
    1.3700   15.4600   -4.8000 C   0  0  0  0  0  0  0  0  0  0  0  0
    0.2090   15.9300   -3.9450 C   0  0  0  0  0  0  0  0  0  0  0  0
   -1.2660   14.7620   -2.1750 C   0  0  0  0  0  0  0  0  0  0  0  0
    1.8130   11.8210   -6.9400 O   0  0  0  0  0  0  0  0  0  0  0  0
    0.0400   10.6600   -7.8480 N   0  0  0  0  0  0  0  0  0  0  0  0
   -2.5170   14.8010   -2.7860 C   0  0  0  0  0  0  0  0  0  0  0  0
   -1.4190   14.6370   -0.7550 C   0  0  0  0  0  0  0  0  0  0  0  0
    0.7680   10.1450   -9.0180 C   0  0  0  0  0  0  0  0  0  0  0  0
   -2.7310   14.5950   -0.3470 C   0  0  0  0  0  0  0  0  0  0  0  0
   -3.8070   14.7000   -1.6640 S   0  0  0  0  0  0  0  0  0  0  0  0
    1.3380    8.7580   -8.7260 C   0  0  0  0  0  0  0  0  0  0  0  0
   -0.0990   10.0990  -10.2770 C   0  0  0  0  0  0  0  0  0  0  0  0
    2.0850    8.1300   -9.9130 C   0  0  0  0  0  0  0  0  0  0  0  0
    0.6610    9.5190  -11.4760 C   0  0  0  0  0  0  0  0  0  0  0  0
    1.2320    8.1350  -11.1770 C   0  0  0  0  0  0  0  0  0  0  0  0
  2  1  1  0
  2  3  1  0
  2  4  1  0
  5  2  1  6
  4  6  1  0
  5  7  1  0
  5  8  1  0
  6  9  1  0
  7 10  1  0
  8 11  1  0
 10 11  1  0
  8 12  1  6
  9 13  2  0
  9 14  1  0
 12 15  2  0
 12 16  1  0
 14 17  1  0
 16 18  2  0
 15 19  1  0
 18 19  1  0
 17 20  1  0
 17 21  1  0
 20 22  1  0
 21 23  1  0
 22 24  1  0
 23 24  1  0
M  END
