mac-x0305-diamond-x0438_0_A
     RDKit          3D

 19 20  0  0  0  0  0  0  0  0999 V2000
    0.4070   13.1790   -0.3790 O   0  0  0  0  0  0  0  0  0  0  0  0
   -0.3770   14.0190   -1.1130 C   0  0  0  0  0  0  0  0  0  0  0  0
    0.1130   14.7020   -2.0100 O   0  0  0  0  0  0  0  0  0  0  0  0
   -1.8510   13.9430   -0.6910 C   0  0  1  0  0  0  0  0  0  0  0  0
   -2.2700   14.4450    0.7260 C   0  0  1  0  0  0  0  0  0  0  0  0
   -2.7500   14.5090   -1.7000 N   0  0  0  0  0  0  0  0  0  0  0  0
   -1.2310   15.0710    1.5010 O   0  0  0  0  0  0  0  0  0  0  0  0
   -3.5540   15.3330    0.7250 C   0  0  0  0  0  0  0  0  0  0  0  0
   -4.0900   14.0280   -1.3620 C   0  0  0  0  0  0  0  0  0  0  0  0
   -4.7040   14.7050   -0.0950 C   0  0  1  0  0  0  0  0  0  0  0  0
   -5.5920   13.8030    0.7670 N   0  0  0  0  0  0  0  0  0  0  0  0
   -5.6900   15.7080   -0.6910 C   0  0  0  0  0  0  0  0  0  0  0  0
   -7.0290   15.2030   -0.2960 N   0  0  0  0  0  0  0  0  0  0  0  0
   -6.7950   14.5980    1.0130 C   0  0  1  0  0  0  0  0  0  0  0  0
   -8.0590   13.9470    1.5810 C   0  0  0  0  0  0  0  0  0  0  0  0
   -9.1020   15.1180    2.4750 S   0  0  0  0  0  0  0  0  0  0  0  0
   -8.1410   15.5580    3.9160 C   0  0  0  0  0  0  0  0  0  0  0  0
  -10.2710   14.4080    2.9730 O   0  0  0  0  0  0  0  0  0  0  0  0
   -9.3090   16.3170    1.6820 O   0  0  0  0  0  0  0  0  0  0  0  0
  1  2  1  0
  2  3  2  0
  4  2  1  6
  4  5  1  0
  4  6  1  0
  5  7  1  6
  5  8  1  0
  6  9  1  0
 10  8  1  1
  9 10  1  0
 10 11  1  0
 10 12  1  0
 12 13  1  0
 11 14  1  0
 13 14  1  0
 14 15  1  6
 16 15  1  0
 16 17  1  0
 16 18  2  0
 16 19  2  0
M  END
