mac-x0392-mac-x0451
     RDKit          3D

 15 16  0  0  0  0  0  0  0  0999 V2000
    0.0380   14.0040    0.0560 N   0  0  0  0  0  0  0  0  0  0  0  0
   -1.3000   14.3880   -0.0720 C   0  0  0  0  0  0  0  0  0  0  0  0
   -2.0660   14.4970    1.0300 C   0  0  0  0  0  0  0  0  0  0  0  0
   -1.8380   14.6630   -1.4220 C   0  0  0  0  0  0  0  0  0  0  0  0
   -0.9290   14.7120   -2.6050 C   0  0  0  0  0  0  0  0  0  0  0  0
   -3.1200   14.8880   -1.7690 C   0  0  0  0  0  0  0  0  0  0  0  0
   -3.3860   14.8500    1.2140 N   0  0  0  0  0  0  0  0  0  0  0  0
   -1.3070   14.6860   -3.7640 O   0  0  0  0  0  0  0  0  0  0  0  0
    0.3870   14.7880   -2.3330 O   0  0  0  0  0  0  0  0  0  0  0  0
   -4.3210   14.9110   -0.9880 C   0  0  0  0  0  0  0  0  0  0  0  0
   -4.4560   14.8870    0.3270 C   0  0  0  0  0  0  0  0  0  0  0  0
   -4.0310   14.8410    2.7480 S   0  0  0  0  0  0  0  0  0  0  0  0
   -5.6590   14.8320    2.1220 C   0  0  0  0  0  0  0  0  0  0  0  0
   -5.7570   14.8760    0.8300 N   0  0  0  0  0  0  0  0  0  0  0  0
   -6.6770   14.7830    3.0180 N   0  0  0  0  0  0  0  0  0  0  0  0
  1  2  1  0
  2  3  2  0
  2  4  1  0
  4  5  1  0
  4  6  2  0
  3  7  1  0
  5  8  2  0
  5  9  1  0
  6 10  1  0
  7 11  1  0
 10 11  2  0
  7 12  1  0
 12 13  1  0
 11 14  1  0
 13 14  2  0
 13 15  1  0
M  END
