mac-x0213-mac-x0394
     RDKit          3D

 15 16  0  0  0  0  0  0  0  0999 V2000
    0.4180   11.7390   -3.1090 O   0  0  0  0  0  0  0  0  0  0  0  0
    0.2880   13.0800   -3.0230 C   0  0  0  0  0  0  0  0  0  0  0  0
    0.5180   13.5980   -1.9490 O   0  0  0  0  0  0  0  0  0  0  0  0
   -0.1440   13.7150   -4.3520 C   0  0  0  0  0  0  0  0  0  0  0  0
   -0.0800   12.5940   -5.3810 C   0  0  0  0  0  0  0  0  0  0  0  0
   -1.5560   14.4080   -4.2970 C   0  0  2  0  0  0  0  0  0  0  0  0
    0.8530   14.8460   -4.7140 C   0  0  2  0  0  0  0  0  0  0  0  0
    1.9290   15.3800   -3.4600 Cl  0  0  0  0  0  0  0  0  0  0  0  0
   -2.9020   13.7200   -5.2070 Cl  0  0  0  0  0  0  0  0  0  0  0  0
   -1.3280   15.7960   -4.7860 C   0  0  0  0  0  0  0  0  0  0  0  0
    0.0180   16.0420   -5.0130 C   0  0  0  0  0  0  0  0  0  0  0  0
   -2.2690   16.7710   -5.0200 C   0  0  0  0  0  0  0  0  0  0  0  0
    0.4580   17.2730   -5.4670 C   0  0  0  0  0  0  0  0  0  0  0  0
   -1.8410   18.0160   -5.4840 C   0  0  0  0  0  0  0  0  0  0  0  0
   -0.4850   18.2630   -5.7030 C   0  0  0  0  0  0  0  0  0  0  0  0
  1  2  1  0
  2  3  2  0
  4  2  1  0
  4  5  1  0
  4  6  1  0
  4  7  1  0
  7  8  1  1
  6  9  1  6
  6 10  1  0
  7 11  1  0
 10 11  2  0
 10 12  1  0
 11 13  1  0
 12 14  2  0
 13 15  2  0
 14 15  1  0
M  END
