mac-x0567-mac-x0333
     RDKit          3D

 15 17  0  0  0  0  0  0  0  0999 V2000
    0.2250   14.0670    0.1260 N   0  0  0  0  0  0  0  0  0  0  0  0
   -1.0660   14.2970    0.4440 C   0  0  0  0  0  0  0  0  0  0  0  0
   -1.5370   14.5150    1.7000 N   0  0  0  0  0  0  0  0  0  0  0  0
   -2.1570   14.3650   -0.3630 C   0  0  0  0  0  0  0  0  0  0  0  0
   -2.8800   14.7190    1.7570 N   0  0  0  0  0  0  0  0  0  0  0  0
   -3.2560   14.6230    0.4780 C   0  0  0  0  0  0  0  0  0  0  0  0
   -2.2750   14.2110   -1.8280 C   0  0  0  0  0  0  0  0  0  0  0  0
   -4.6350   14.7520   -0.1170 C   0  0  2  0  0  0  0  0  0  0  0  0
   -3.5300   14.8810   -2.4220 C   0  0  2  0  0  0  0  0  0  0  0  0
   -3.0920   15.7690   -3.4420 O   0  0  0  0  0  0  0  0  0  0  0  0
   -4.4390   15.5950   -1.3880 C   0  0  0  0  0  0  0  0  0  0  0  0
   -5.6310   15.3390    0.7640 O   0  0  0  0  0  0  0  0  0  0  0  0
   -5.3230   13.4750   -0.5370 C   0  0  0  0  0  0  0  0  0  0  0  0
   -6.6700   13.9110   -0.7330 O   0  0  0  0  0  0  0  0  0  0  0  0
   -6.8570   14.6450    0.4640 C   0  0  0  0  0  0  0  0  0  0  0  0
  1  2  1  0
  2  3  1  0
  2  4  2  0
  3  5  1  0
  4  6  1  0
  5  6  2  0
  4  7  1  0
  6  8  1  0
  7  9  1  0
  9 10  1  6
  8 11  1  6
  9 11  1  0
  8 12  1  0
  8 13  1  0
 13 14  1  0
 12 15  1  0
 14 15  1  0
M  END
