mac-x0139-diamond-x0895_1_A
     RDKit          3D

 18 19  0  0  0  0  0  0  0  0999 V2000
   -2.2360   15.0830   -3.6380 C   0  0  0  0  0  0  0  0  0  0  0  0
   -1.1100   14.7510   -2.7770 N   0  0  0  0  0  0  0  0  0  0  0  0
    0.2180   14.9140   -3.4060 C   0  0  0  0  0  0  0  0  0  0  0  0
   -1.1760   14.8430   -1.3980 C   0  0  0  0  0  0  0  0  0  0  0  0
    0.6740   13.6440   -4.1190 C   0  0  0  0  0  0  0  0  0  0  0  0
   -2.4030   14.8570   -0.5780 C   0  0  0  0  0  0  0  0  0  0  0  0
   -0.0410   14.9540   -0.7590 N   0  0  0  0  0  0  0  0  0  0  0  0
    0.9750   12.5200   -3.1660 C   0  0  0  0  0  0  0  0  0  0  0  0
   -2.2020   14.9460    0.8430 C   0  0  0  0  0  0  0  0  0  0  0  0
   -0.0030   15.0720    0.5950 C   0  0  0  0  0  0  0  0  0  0  0  0
   -3.7380   14.8250   -0.7690 C   0  0  0  0  0  0  0  0  0  0  0  0
    1.5770   12.5770   -2.1140 O   0  0  0  0  0  0  0  0  0  0  0  0
    0.4920   11.3450   -3.6020 O   0  0  0  0  0  0  0  0  0  0  0  0
   -0.9930   15.0380    1.3780 N   0  0  0  0  0  0  0  0  0  0  0  0
   -3.2470   14.9590    1.4880 N   0  0  0  0  0  0  0  0  0  0  0  0
   -4.3900   14.8800    0.5710 C   0  0  0  0  0  0  0  0  0  0  0  0
   -3.1980   15.0380    2.7100 O   0  0  0  0  0  0  0  0  0  0  0  0
   -5.6090   14.8570    0.7400 O   0  0  0  0  0  0  0  0  0  0  0  0
  1  2  1  0
  2  3  1  0
  2  4  1  0
  3  5  1  0
  4  6  1  0
  4  7  2  0
  5  8  1  0
  6  9  1  0
  7 10  1  0
  6 11  2  0
  8 12  2  0
  8 13  1  0
  9 14  1  0
 10 14  2  0
  9 15  2  0
 11 16  1  0
 15 16  1  0
 15 17  1  0
 16 18  2  0
M  CHG  2  15   1  17  -1
M  END
