mac-x0212-mac-x0182
     RDKit          3D

 27 29  0  0  0  0  0  0  0  0999 V2000
   -6.5750   12.7440    1.4790 C   0  0  0  0  0  0  0  0  0  0  0  0
   -6.9840   14.4640    1.2230 S   0  0  0  0  0  0  0  0  0  0  0  0
   -7.8960   14.9240    2.2470 O   0  0  0  0  0  0  0  0  0  0  0  0
   -7.3240   14.6230   -0.1810 O   0  0  0  0  0  0  0  0  0  0  0  0
   -5.4650   15.1780    1.4030 N   0  0  0  0  0  0  0  0  0  0  0  0
   -4.6030   15.0530    0.2820 C   0  0  0  0  0  0  0  0  0  0  0  0
   -3.3840   14.4240    0.5010 C   0  0  0  0  0  0  0  0  0  0  0  0
   -4.9540   15.5160   -0.9930 C   0  0  0  0  0  0  0  0  0  0  0  0
   -2.5100   14.2320   -0.5550 C   0  0  0  0  0  0  0  0  0  0  0  0
   -4.0780   15.3230   -2.0580 C   0  0  0  0  0  0  0  0  0  0  0  0
   -2.8730   14.6750   -1.8250 C   0  0  0  0  0  0  0  0  0  0  0  0
   -1.9590   14.4130   -2.9110 C   0  0  0  0  0  0  0  0  0  0  0  0
   -0.7370   14.1420   -2.9930 N   0  0  0  0  0  0  0  0  0  0  0  0
   -2.6370   14.4510   -4.0720 O   0  0  0  0  0  0  0  0  0  0  0  0
   -0.4290   13.8530   -4.3640 C   0  0  0  0  0  0  0  0  0  0  0  0
   -1.3060   12.7060   -4.6530 N   0  0  0  0  0  0  0  0  0  0  0  0
   -0.6290   11.3620   -4.4820 S   0  0  2  0  0  0  0  0  0  0  0  0
   -0.3320   10.6330   -3.2640 O   0  0  0  0  0  0  0  0  0  0  0  0
    0.8340   11.7540   -5.1530 N   0  0  0  0  0  0  0  0  0  0  0  0
   -1.1170   10.2700   -5.7390 C   0  0  0  0  0  0  0  0  0  0  0  0
    0.8330   11.3950   -6.4630 C   0  0  0  0  0  0  0  0  0  0  0  0
   -0.2140   10.4070   -6.7750 C   0  0  0  0  0  0  0  0  0  0  0  0
   -2.1870    9.3960   -5.7880 C   0  0  0  0  0  0  0  0  0  0  0  0
    1.6060   11.7820   -7.2770 O   0  0  0  0  0  0  0  0  0  0  0  0
   -2.3300    8.6350   -6.9530 C   0  0  0  0  0  0  0  0  0  0  0  0
   -0.3450    9.6600   -7.9340 C   0  0  0  0  0  0  0  0  0  0  0  0
   -1.4180    8.7660   -8.0200 C   0  0  0  0  0  0  0  0  0  0  0  0
  1  2  1  0
  2  3  2  0
  2  4  2  0
  2  5  1  0
  5  6  1  0
  6  7  2  0
  6  8  1  0
  7  9  1  0
  8 10  2  0
  9 11  2  0
 10 11  1  0
 11 12  1  0
 12 13  2  3
 12 14  1  0
 13 15  1  0
 15 16  1  0
 16 17  2  0
 17 18  2  0
 17 19  1  6
 17 20  1  0
 19 21  1  0
 20 22  2  0
 21 22  1  0
 20 23  1  0
 21 24  2  0
 23 25  2  0
 22 26  1  0
 25 27  1  0
 26 27  2  0
M  END
