mac-x0188-mac-x0163
     RDKit          3D

 30 33  0  0  0  0  0  0  0  0999 V2000
    2.1100   12.9580   -4.6820 C   0  0  0  0  0  0  0  0  0  0  0  0
    0.7730   13.3560   -4.2420 C   0  0  1  0  0  0  0  0  0  0  0  0
    0.6460   14.0790   -2.8800 C   0  0  0  0  0  0  0  0  0  0  0  0
    0.3490   14.5000   -5.1220 C   0  0  0  0  0  0  0  0  0  0  0  0
    1.8020   14.9730   -2.9430 C   0  0  0  0  0  0  0  0  0  0  0  0
    1.4740   13.3300   -1.8640 C   0  0  0  0  0  0  0  0  0  0  0  0
   -0.7390   14.5600   -2.5410 N   0  0  0  0  0  0  0  0  0  0  0  0
   -0.7510   15.0060   -4.3630 C   0  0  0  0  0  0  0  0  0  0  0  0
   -2.0610   14.0050   -3.5770 S   0  0  0  0  0  0  0  0  0  0  0  0
   -1.0730   14.5990   -1.1440 C   0  0  0  0  0  0  0  0  0  0  0  0
    2.2090   14.5730   -1.5650 C   0  0  0  0  0  0  0  0  0  0  0  0
   -2.8520   13.7200   -5.3540 N   0  0  0  0  0  0  0  0  0  0  0  0
   -1.5070   12.1880   -3.4270 C   0  0  0  0  0  0  0  0  0  0  0  0
   -3.4730   14.1420   -2.3160 C   0  0  0  0  0  0  0  0  0  0  0  0
   -2.2210   14.9510   -0.5060 C   0  0  0  0  0  0  0  0  0  0  0  0
   -0.1060   14.2130   -0.2100 N   0  0  0  0  0  0  0  0  0  0  0  0
   -0.4690   12.0630   -2.4450 C   0  0  0  0  0  0  0  0  0  0  0  0
   -3.6300   15.4960   -1.3050 Cl  0  0  0  0  0  0  0  0  0  0  0  0
   -2.0460   13.3230   -6.2250 O   0  0  0  0  0  0  0  0  0  0  0  0
   -4.5420   14.9910   -2.6630 C   0  0  0  0  0  0  0  0  0  0  0  0
   -3.6680   13.5830   -1.1120 C   0  0  0  0  0  0  0  0  0  0  0  0
   -2.3970   14.9220    0.8960 C   0  0  0  0  0  0  0  0  0  0  0  0
   -0.2550   14.1780    1.0960 C   0  0  0  0  0  0  0  0  0  0  0  0
    0.6220   11.6900   -2.8960 O   0  0  0  0  0  0  0  0  0  0  0  0
   -0.3820   12.2970   -1.1130 O   0  0  0  0  0  0  0  0  0  0  0  0
   -3.6170   15.3010    1.5350 N   0  0  0  0  0  0  0  0  0  0  0  0
   -5.6400   15.2250   -1.8710 C   0  0  0  0  0  0  0  0  0  0  0  0
   -4.7470   13.7620   -0.2450 C   0  0  0  0  0  0  0  0  0  0  0  0
   -1.4000   14.5310    1.6710 N   0  0  0  0  0  0  0  0  0  0  0  0
   -5.6950   14.5960   -0.6850 C   0  0  0  0  0  0  0  0  0  0  0  0
  2  1  1  6
  2  3  1  0
  2  4  1  0
  3  5  1  0
  3  6  1  0
  3  7  1  0
  4  8  1  0
  7  9  1  0
  8  9  1  0
  7 10  1  0
  5 11  1  0
  6 11  1  0
  9 12  1  0
  9 13  1  0
  9 14  1  0
 10 15  2  0
 10 16  1  0
 13 17  1  0
 15 18  1  0
 12 19  1  0
 14 20  2  0
 14 21  1  0
 15 22  1  0
 16 23  2  0
 17 24  2  0
 17 25  1  0
 22 26  1  0
 20 27  1  0
 21 28  2  0
 22 29  2  0
 23 29  1  0
 27 30  2  0
 28 30  1  0
M  END
