mac-x0131-mac-x0396
     RDKit          3D

 26 29  0  0  0  0  0  0  0  0999 V2000
   -3.2270   15.2310   -4.3560 C   0  0  0  0  0  0  0  0  0  0  0  0
   -2.7420   15.1220   -2.9530 C   0  0  0  0  0  0  0  0  0  0  0  0
   -3.4470   15.1840   -1.7770 C   0  0  0  0  0  0  0  0  0  0  0  0
   -1.4150   14.9360   -2.6340 N   0  0  0  0  0  0  0  0  0  0  0  0
   -4.9210   15.3970   -1.7340 C   0  0  0  0  0  0  0  0  0  0  0  0
   -0.3390   14.8190   -3.5960 C   0  0  0  0  0  0  0  0  0  0  0  0
   -2.4960   15.0100   -0.6780 C   0  0  0  0  0  0  0  0  0  0  0  0
   -1.2520   14.8760   -1.2590 C   0  0  0  0  0  0  0  0  0  0  0  0
   -2.5230   14.9490    0.7400 C   0  0  0  0  0  0  0  0  0  0  0  0
   -0.0970   14.7190   -0.5830 N   0  0  0  0  0  0  0  0  0  0  0  0
   -0.0470   13.3830   -3.7050 C   0  0  0  0  0  0  0  0  0  0  0  0
   -3.7730   15.0380    1.2470 N   0  0  0  0  0  0  0  0  0  0  0  0
   -1.4120   14.7910    1.4560 N   0  0  0  0  0  0  0  0  0  0  0  0
   -0.2770   14.6970    0.7610 C   0  0  0  0  0  0  0  0  0  0  0  0
    0.9410   12.5970   -3.1770 C   0  0  0  0  0  0  0  0  0  0  0  0
   -0.9010   12.6280   -4.4590 O   0  0  0  0  0  0  0  0  0  0  0  0
   -4.5130   14.4630    0.2850 C   0  0  0  0  0  0  0  0  0  0  0  0
   -0.4460   11.3540   -4.3970 C   0  0  0  0  0  0  0  0  0  0  0  0
    0.6840   11.2920   -3.6160 C   0  0  0  0  0  0  0  0  0  0  0  0
   -4.0640   13.8450   -0.6560 O   0  0  0  0  0  0  0  0  0  0  0  0
   -5.9470   14.5730    0.3320 C   0  0  0  0  0  0  0  0  0  0  0  0
   -6.6190   14.6360   -0.8750 C   0  0  0  0  0  0  0  0  0  0  0  0
   -6.6550   14.6100    1.5090 C   0  0  0  0  0  0  0  0  0  0  0  0
   -7.9540   14.7330   -0.9690 N   0  0  0  0  0  0  0  0  0  0  0  0
   -8.0300   14.7080    1.4420 C   0  0  0  0  0  0  0  0  0  0  0  0
   -8.6270   14.7670    0.1940 C   0  0  0  0  0  0  0  0  0  0  0  0
  1  2  1  0
  2  3  2  0
  2  4  1  0
  3  5  1  0
  4  6  1  0
  3  7  1  0
  4  8  1  0
  7  8  2  0
  7  9  1  0
  8 10  1  0
  6 11  1  0
  9 12  1  0
  9 13  2  0
 10 14  2  0
 13 14  1  0
 11 15  2  0
 11 16  1  0
 12 17  1  0
 16 18  1  0
 15 19  1  0
 18 19  2  0
 17 20  2  0
 17 21  1  0
 21 22  2  0
 21 23  1  0
 22 24  1  0
 23 25  2  0
 24 26  2  0
 25 26  1  0
M  END
