mac-x0337-mac-x0509
     RDKit          3D

 24 26  0  0  0  0  0  0  0  0999 V2000
   -5.8600    9.2810   -2.0310 C   0  0  0  0  0  0  0  0  0  0  0  0
   -5.2880   10.6480   -1.7690 C   0  0  0  0  0  0  0  0  0  0  0  0
   -6.0330   11.5350   -0.9730 C   0  0  0  0  0  0  0  0  0  0  0  0
   -4.0390   11.0700   -2.2900 C   0  0  0  0  0  0  0  0  0  0  0  0
   -3.1330   10.2230   -3.1520 C   0  0  0  0  0  0  0  0  0  0  0  0
   -3.5830   12.3640   -2.0020 C   0  0  0  0  0  0  0  0  0  0  0  0
   -5.5640   12.8190   -0.6950 C   0  0  0  0  0  0  0  0  0  0  0  0
   -3.8430    9.0550   -3.8710 C   0  0  0  0  0  0  0  0  0  0  0  0
   -4.3410   13.2230   -1.2160 C   0  0  0  0  0  0  0  0  0  0  0  0
   -3.7190   14.8510   -0.8900 S   0  0  0  0  0  0  0  0  0  0  0  0
   -3.4740    8.8540   -5.3500 C   0  0  0  0  0  0  0  0  0  0  0  0
   -3.4200   15.4770   -2.1570 O   0  0  0  0  0  0  0  0  0  0  0  0
   -2.7650   14.7950    0.1910 O   0  0  0  0  0  0  0  0  0  0  0  0
   -5.0960   15.6350   -0.2960 N   0  0  0  0  0  0  0  0  0  0  0  0
   -2.2660    8.0450   -5.5620 N   0  0  0  0  0  0  0  0  0  0  0  0
   -1.4580    8.4010   -6.4950 C   0  0  0  0  0  0  0  0  0  0  0  0
   -1.6440    9.6180   -7.4240 C   0  0  0  0  0  0  0  0  0  0  0  0
   -0.2830    7.7540   -6.8210 N   0  0  0  0  0  0  0  0  0  0  0  0
   -0.4850    9.4520   -8.3610 C   0  0  0  0  0  0  0  0  0  0  0  0
    0.2770    8.3420   -7.9590 C   0  0  0  0  0  0  0  0  0  0  0  0
   -0.1430   10.2140   -9.4630 C   0  0  0  0  0  0  0  0  0  0  0  0
    1.3990    7.9720   -8.6600 C   0  0  0  0  0  0  0  0  0  0  0  0
    0.9970    9.8450  -10.1760 C   0  0  0  0  0  0  0  0  0  0  0  0
    1.7600    8.7320   -9.7780 C   0  0  0  0  0  0  0  0  0  0  0  0
  1  2  1  0
  2  3  2  0
  2  4  1  0
  4  5  1  0
  4  6  2  0
  3  7  1  0
  5  8  1  0
  6  9  1  0
  7  9  2  0
  9 10  1  0
  8 11  1  0
 10 12  2  0
 10 13  2  0
 10 14  1  0
 11 15  1  0
 15 16  2  3
 16 17  1  0
 16 18  1  0
 17 19  1  0
 18 20  1  0
 19 20  2  0
 19 21  1  0
 20 22  1  0
 21 23  2  0
 22 24  2  0
 23 24  1  0
M  END
