mac-x0321-mac-x0148
     RDKit          3D

 24 27  0  0  0  0  0  0  0  0999 V2000
   -4.5210   15.1250    1.4130 Cl  0  0  0  0  0  0  0  0  0  0  0  0
   -3.8410   15.7120   -0.1010 C   0  0  1  0  0  0  0  0  0  0  0  0
   -2.8350   14.7310   -0.8670 C   0  0  2  0  0  0  0  0  0  0  0  0
   -5.1190   16.0560   -0.8560 C   0  0  0  0  0  0  0  0  0  0  0  0
   -3.4890   14.2720   -2.2040 C   0  0  1  0  0  0  0  0  0  0  0  0
   -5.6540   15.3030   -1.8030 C   0  0  0  0  0  0  0  0  0  0  0  0
   -2.6600   13.6850    0.2700 C   0  0  0  0  0  0  0  0  0  0  0  0
   -1.2670   14.7480   -1.1500 C   0  0  1  0  0  0  0  0  0  0  0  0
   -2.8110   13.1430   -2.9090 C   0  0  0  0  0  0  0  0  0  0  0  0
   -4.9930   14.0430   -2.1880 C   0  0  0  0  0  0  0  0  0  0  0  0
   -0.5880   14.5380   -2.4790 N   0  0  0  0  0  0  0  0  0  0  0  0
   -0.3660   15.2140   -0.1040 N   0  0  0  0  0  0  0  0  0  0  0  0
   -1.8420   14.1860    1.4040 N   0  0  0  0  0  0  0  0  0  0  0  0
   -1.7240   12.6770   -2.2830 O   0  0  0  0  0  0  0  0  0  0  0  0
   -3.1680   12.6530   -3.9610 O   0  0  0  0  0  0  0  0  0  0  0  0
   -0.9010   15.1050   -3.8260 C   0  0  2  0  0  0  0  0  0  0  0  0
    0.4090   13.4340   -2.4250 C   0  0  0  0  0  0  0  0  0  0  0  0
   -0.4510   14.3860    1.0710 C   0  0  0  0  0  0  0  0  0  0  0  0
   -2.3590   15.5390   -4.1440 C   0  0  0  0  0  0  0  0  0  0  0  0
   -0.5430   14.2580   -5.0820 C   0  0  2  0  0  0  0  0  0  0  0  0
    0.2620   12.3890   -3.5200 C   0  0  0  0  0  0  0  0  0  0  0  0
   -1.9080   13.7900   -5.5650 C   0  0  0  0  0  0  0  0  0  0  0  0
   -2.7680   14.9120   -5.3800 O   0  0  0  0  0  0  0  0  0  0  0  0
    0.3800   13.0410   -4.8820 C   0  0  0  0  0  0  0  0  0  0  0  0
  2  1  1  1
  2  3  1  0
  2  4  1  0
  3  5  1  0
  4  6  2  0
  3  7  1  1
  3  8  1  0
  5  9  1  1
  5 10  1  0
  6 10  1  0
  8 11  1  6
  8 12  1  0
  7 13  1  0
  9 14  1  0
  9 15  2  0
 11 16  1  0
 11 17  1  0
 12 18  1  0
 13 18  1  0
 16 19  1  1
 16 20  1  0
 17 21  1  0
 20 22  1  1
 19 23  1  0
 22 23  1  0
 20 24  1  0
 21 24  1  0
M  END
