mac-x0437-mac-x0179
     RDKit          3D

 16 17  0  0  0  0  0  0  0  0999 V2000
    1.2430   12.9660   -2.2440 O   0  0  0  0  0  0  0  0  0  0  0  0
    1.2380   12.2460   -3.3810 C   0  0  0  0  0  0  0  0  0  0  0  0
    0.7870   11.1110   -3.3950 O   0  0  0  0  0  0  0  0  0  0  0  0
    1.8530   12.9610   -4.5690 C   0  0  0  0  0  0  0  0  0  0  0  0
    1.0690   13.0250   -5.9050 C   0  0  0  0  0  0  0  0  0  0  0  0
   -0.1270   12.2150   -6.1180 N   0  0  0  0  0  0  0  0  0  0  0  0
   -0.8700   11.9350   -5.0030 C   0  0  0  0  0  0  0  0  0  0  0  0
   -0.0710   10.9240   -6.6720 C   0  0  1  0  0  0  0  0  0  0  0  0
   -0.5940   12.5100   -3.9910 O   0  0  0  0  0  0  0  0  0  0  0  0
   -1.9490   10.8600   -5.3330 C   0  0  2  0  0  0  0  0  0  0  0  0
   -1.5170   10.4680   -6.7630 C   0  0  2  0  0  0  0  0  0  0  0  0
    0.6980   10.6870   -7.9180 C   0  0  0  0  0  0  0  0  0  0  0  0
   -3.1420   11.3950   -5.3460 O   0  0  0  0  0  0  0  0  0  0  0  0
   -1.5100    9.0260   -7.2170 C   0  0  0  0  0  0  0  0  0  0  0  0
    0.4450    9.5550   -8.5860 C   0  0  0  0  0  0  0  0  0  0  0  0
   -0.5580    8.6200   -8.0880 C   0  0  0  0  0  0  0  0  0  0  0  0
  1  2  1  0
  2  3  2  0
  2  4  1  0
  4  5  1  0
  5  6  1  0
  6  7  1  0
  6  8  1  0
  7  9  2  0
  7 10  1  0
  8 11  1  0
 10 11  1  0
  8 12  1  6
 10 13  1  6
 11 14  1  1
 12 15  2  0
 14 16  2  0
 15 16  1  0
M  CHG  1  13  -1
M  END
