mac-x0365-mac-x0357
     RDKit          3D

 21 22  0  0  0  0  0  0  0  0999 V2000
   -0.6510   14.2060   -1.8680 N   0  0  0  0  0  0  0  0  0  0  0  0
   -1.7370   14.7480   -2.5090 C   0  0  0  0  0  0  0  0  0  0  0  0
   -1.7100   15.1520   -3.6620 O   0  0  0  0  0  0  0  0  0  0  0  0
    0.0620   13.2950   -2.4840 C   0  0  0  0  0  0  0  0  0  0  0  0
    1.1110   12.7980   -1.8130 O   0  0  0  0  0  0  0  0  0  0  0  0
   -3.0400   14.8500   -1.7600 C   0  0  0  0  0  0  0  0  0  0  0  0
   -0.0260   12.6420   -3.8190 C   0  0  0  0  0  0  0  0  0  0  0  0
   -4.2250   14.9800   -2.4810 C   0  0  0  0  0  0  0  0  0  0  0  0
   -3.0900   14.8160   -0.3490 C   0  0  0  0  0  0  0  0  0  0  0  0
    1.0600   12.6090   -4.7250 C   0  0  0  0  0  0  0  0  0  0  0  0
   -1.2510   12.0410   -4.1550 C   0  0  0  0  0  0  0  0  0  0  0  0
    2.3920   13.2320   -4.4050 C   0  0  0  0  0  0  0  0  0  0  0  0
   -5.4350   15.0650   -1.8130 C   0  0  0  0  0  0  0  0  0  0  0  0
   -4.3230   14.9050    0.3200 C   0  0  0  0  0  0  0  0  0  0  0  0
   -1.4070   11.4070   -5.3900 C   0  0  0  0  0  0  0  0  0  0  0  0
    0.8630   11.9630   -5.9540 C   0  0  0  0  0  0  0  0  0  0  0  0
   -6.5600   15.1830   -2.5300 F   0  0  0  0  0  0  0  0  0  0  0  0
    1.8990   11.9180   -6.8360 O   0  0  0  0  0  0  0  0  0  0  0  0
   -5.4980   15.0260   -0.4270 C   0  0  0  0  0  0  0  0  0  0  0  0
   -0.3490   11.3680   -6.2930 C   0  0  0  0  0  0  0  0  0  0  0  0
   -6.7190   15.1030    0.1700 O   0  0  0  0  0  0  0  0  0  0  0  0
  1  2  1  0
  2  3  2  0
  1  4  2  3
  4  5  1  0
  2  6  1  0
  4  7  1  0
  6  8  2  0
  6  9  1  0
  7 10  2  0
  7 11  1  0
 10 12  1  0
  8 13  1  0
  9 14  2  0
 11 15  2  0
 10 16  1  0
 13 17  1  0
 16 18  1  0
 13 19  2  0
 14 19  1  0
 15 20  1  0
 16 20  2  0
 19 21  1  0
M  END
