mac-x0346-diamond-x0592_0_A
     RDKit          3D

 21 22  0  0  0  0  0  0  0  0999 V2000
   -7.6400   13.8310    0.6810 N   0  0  0  0  0  0  0  0  0  0  0  0
   -7.8390   15.0590    0.0410 N   0  0  0  0  0  0  0  0  0  0  0  0
   -6.9100   15.3950   -0.9660 C   0  0  0  0  0  0  0  0  0  0  0  0
   -7.7120   13.8070    2.1440 C   0  0  0  0  0  0  0  0  0  0  0  0
   -6.3650   13.5580    0.1760 N   0  0  0  0  0  0  0  0  0  0  0  0
   -7.0880   14.9340    2.7470 O   0  0  0  0  0  0  0  0  0  0  0  0
   -6.1680   13.0270   -1.0430 N   0  0  0  0  0  0  0  0  0  0  0  0
   -5.2110   13.8330    0.8280 C   0  0  0  0  0  0  0  0  0  0  0  0
   -7.2390   15.5490   -2.1340 O   0  0  0  0  0  0  0  0  0  0  0  0
   -5.4280   15.5490   -0.6150 C   0  0  0  0  0  0  0  0  0  0  0  0
   -4.1840   13.4880   -0.0030 C   0  0  0  0  0  0  0  0  0  0  0  0
   -4.8380   12.9870   -1.1480 C   0  0  0  0  0  0  0  0  0  0  0  0
   -2.7760   13.6280    0.2450 C   0  0  0  0  0  0  0  0  0  0  0  0
   -4.3870   15.6400   -1.5590 C   0  0  0  0  0  0  0  0  0  0  0  0
   -5.0510   15.6040    0.7430 C   0  0  0  0  0  0  0  0  0  0  0  0
   -4.6510   15.5800   -2.8970 O   0  0  0  0  0  0  0  0  0  0  0  0
   -2.4600   13.9660    1.5300 N   0  0  0  0  0  0  0  0  0  0  0  0
   -1.9150   13.4780   -0.6140 O   0  0  0  0  0  0  0  0  0  0  0  0
   -3.0490   15.7920   -1.1610 C   0  0  0  0  0  0  0  0  0  0  0  0
   -3.7310   15.7560    1.1380 C   0  0  0  0  0  0  0  0  0  0  0  0
   -2.7220   15.8550    0.1920 C   0  0  0  0  0  0  0  0  0  0  0  0
  1  2  1  0
  2  3  1  0
  1  4  1  0
  1  5  1  0
  4  6  1  0
  5  7  1  0
  5  8  1  0
  3  9  2  0
  3 10  1  0
  8 11  2  0
  7 12  2  0
 11 12  1  0
 11 13  1  0
 10 14  2  0
 10 15  1  0
 14 16  1  0
 13 17  1  0
 13 18  2  0
 14 19  1  0
 15 20  2  0
 19 21  2  0
 20 21  1  0
M  END
