mac-x0402-mac-x0568
     RDKit          3D

 15 16  0  0  0  0  0  0  0  0999 V2000
   -2.2190   14.3650   -3.1410 Cl  0  0  0  0  0  0  0  0  0  0  0  0
   -3.6960   13.6970   -2.3670 C   0  0  2  0  0  0  0  0  0  0  0  0
   -4.8820   14.5170   -2.8140 C   0  0  0  0  0  0  0  0  0  0  0  0
   -3.6040   13.5790   -0.8330 C   0  0  0  0  0  0  0  0  0  0  0  0
   -3.9450   14.9140   -0.2020 C   0  0  1  0  0  0  0  0  0  0  0  0
   -5.6440   15.2670   -1.9920 C   0  0  0  0  0  0  0  0  0  0  0  0
   -2.8860   15.7730   -0.8570 C   0  0  0  0  0  0  0  0  0  0  0  0
   -5.3710   15.3790   -0.5200 C   0  0  1  0  0  0  0  0  0  0  0  0
   -3.9590   14.8520    1.6350 S   0  0  0  0  0  0  0  0  0  0  0  0
   -2.9830   16.2390   -1.9810 O   0  0  0  0  0  0  0  0  0  0  0  0
   -1.7380   15.9580   -0.1540 N   0  0  0  0  0  0  0  0  0  0  0  0
   -5.6990   14.3720    1.6140 C   0  0  2  0  0  0  0  0  0  0  0  0
   -6.3040   14.5400    0.3000 N   0  0  0  0  0  0  0  0  0  0  0  0
   -6.4900   14.9900    2.6370 N   0  0  0  0  0  0  0  0  0  0  0  0
   -7.7460   14.8830    0.2850 C   0  0  0  0  0  0  0  0  0  0  0  0
  2  1  1  1
  2  3  1  0
  2  4  1  0
  4  5  1  0
  3  6  2  0
  5  7  1  1
  5  8  1  0
  8  6  1  6
  5  9  1  0
  7 10  2  0
  7 11  1  0
  9 12  1  0
  8 13  1  0
 12 13  1  0
 12 14  1  1
 13 15  1  0
M  END
