mac-x0360-diamond-x0969_0_A
     RDKit          3D

 22 24  0  0  0  0  0  0  0  0999 V2000
   -7.1660   11.7590    1.6550 Cl  0  0  0  0  0  0  0  0  0  0  0  0
   -6.1400   11.7190    0.2670 C   0  0  0  0  0  0  0  0  0  0  0  0
   -6.2000   10.6110   -0.5610 C   0  0  0  0  0  0  0  0  0  0  0  0
   -5.2620   12.7680   -0.0380 C   0  0  0  0  0  0  0  0  0  0  0  0
   -4.4540   12.6740   -1.2020 C   0  0  0  0  0  0  0  0  0  0  0  0
   -5.3840   10.5470   -1.6860 C   0  0  0  0  0  0  0  0  0  0  0  0
   -5.4440    9.1720   -2.7050 Cl  0  0  0  0  0  0  0  0  0  0  0  0
   -3.3400   13.9500   -1.7040 S   0  0  1  0  0  0  0  0  0  0  0  0
   -4.5160   11.5680   -2.0100 C   0  0  0  0  0  0  0  0  0  0  0  0
   -2.3850   13.5550   -3.0090 N   0  0  0  0  0  0  0  0  0  0  0  0
   -4.2990   15.0120   -2.2300 N   0  0  0  0  0  0  0  0  0  0  0  0
   -2.3870   14.0960   -0.6130 O   0  0  0  0  0  0  0  0  0  0  0  0
   -4.6590   15.2220   -0.9260 C   0  0  0  0  0  0  0  0  0  0  0  0
   -5.8560   15.0060   -0.2530 C   0  0  0  0  0  0  0  0  0  0  0  0
   -3.5450   15.5090   -0.3130 C   0  0  0  0  0  0  0  0  0  0  0  0
   -7.0860   14.7000   -0.5990 N   0  0  0  0  0  0  0  0  0  0  0  0
   -5.7310   15.1070    1.1070 N   0  0  0  0  0  0  0  0  0  0  0  0
   -3.4460   15.6550    1.0770 C   0  0  0  0  0  0  0  0  0  0  0  0
   -6.9810   14.8100    1.5850 C   0  0  0  0  0  0  0  0  0  0  0  0
   -7.7960   14.5730    0.5730 N   0  0  0  0  0  0  0  0  0  0  0  0
   -4.5500   15.4440    1.7670 C   0  0  0  0  0  0  0  0  0  0  0  0
   -7.2610   14.7940    2.9020 N   0  0  0  0  0  0  0  0  0  0  0  0
  1  2  1  0
  2  3  2  0
  2  4  1  0
  4  5  2  0
  3  6  1  0
  6  7  1  0
  5  8  1  0
  5  9  1  0
  6  9  2  0
  8 10  1  6
  8 11  2  0
  8 12  2  0
 11 13  1  0
 13 14  1  0
 13 15  2  0
 14 16  2  0
 14 17  1  0
 15 18  1  0
 17 19  1  0
 16 20  1  0
 19 20  2  0
 17 21  1  0
 18 21  2  0
 19 22  1  0
M  END
