mac-x0163-mac-x0224
     RDKit          3D

 28 31  0  0  0  0  0  0  0  0999 V2000
   -2.5500   15.9200   -2.0800 Cl  0  0  0  0  0  0  0  0  0  0  0  0
   -1.6790   15.4230   -0.6680 C   0  0  0  0  0  0  0  0  0  0  0  0
   -2.3340   15.2180    0.5530 C   0  0  0  0  0  0  0  0  0  0  0  0
   -0.3310   15.1950   -0.7140 C   0  0  0  0  0  0  0  0  0  0  0  0
   -3.7230   15.4300    0.4610 N   0  0  0  0  0  0  0  0  0  0  0  0
    0.3130   14.8060    0.3790 N   0  0  0  0  0  0  0  0  0  0  0  0
   -1.6900   14.8210    1.6760 N   0  0  0  0  0  0  0  0  0  0  0  0
    0.4470   15.3140   -1.8840 N   0  0  0  0  0  0  0  0  0  0  0  0
   -4.4180   14.7750    1.5750 C   0  0  0  0  0  0  0  0  0  0  0  0
   -0.3770   14.6360    1.5040 C   0  0  0  0  0  0  0  0  0  0  0  0
    0.6440   13.9170   -2.2660 C   0  0  0  0  0  0  0  0  0  0  0  0
   -0.0570   16.1590   -2.9880 C   0  0  0  0  0  0  0  0  0  0  0  0
   -3.9730   14.9590   -0.8420 C   0  0  0  0  0  0  0  0  0  0  0  0
    1.0710   13.7540   -3.7170 C   0  0  0  0  0  0  0  0  0  0  0  0
   -0.7970   15.3380   -4.0560 C   0  0  0  0  0  0  0  0  0  0  0  0
   -2.9970   14.0260   -1.2780 C   0  0  0  0  0  0  0  0  0  0  0  0
   -4.9920   15.2870   -1.7420 C   0  0  0  0  0  0  0  0  0  0  0  0
    1.5910   12.3380   -4.0110 C   0  0  0  0  0  0  0  0  0  0  0  0
    2.5150   14.2110   -3.9310 C   0  0  0  0  0  0  0  0  0  0  0  0
    0.0890   14.3130   -4.7430 C   0  0  0  0  0  0  0  0  0  0  0  0
   -2.9950   13.4480   -2.5430 C   0  0  0  0  0  0  0  0  0  0  0  0
   -5.0080   14.7060   -3.0280 C   0  0  0  0  0  0  0  0  0  0  0  0
   -1.9250   12.4890   -2.9270 C   0  0  0  0  0  0  0  0  0  0  0  0
   -4.0130   13.8010   -3.4260 C   0  0  0  0  0  0  0  0  0  0  0  0
    2.6720   13.0010   -4.8620 C   0  0  0  0  0  0  0  0  0  0  0  0
   -4.1020   13.3040   -4.6950 O   0  0  0  0  0  0  0  0  0  0  0  0
   -1.2920   11.8740   -2.0740 O   0  0  0  0  0  0  0  0  0  0  0  0
   -1.7010   12.3630   -4.2480 O   0  0  0  0  0  0  0  0  0  0  0  0
  1  2  1  0
  2  3  2  0
  2  4  1  0
  3  5  1  0
  4  6  2  0
  3  7  1  0
  4  8  1  0
  5  9  1  0
  6 10  1  0
  7 10  2  0
  8 11  1  0
  8 12  1  0
  5 13  1  0
 14 11  1  0
 12 15  1  0
 13 16  2  0
 13 17  1  0
 14 18  1  0
 14 19  1  0
 14 20  1  0
 15 20  1  0
 16 21  1  0
 17 22  2  0
 21 23  1  0
 21 24  2  0
 22 24  1  0
 18 25  1  0
 19 25  1  0
 24 26  1  0
 23 27  2  0
 23 28  1  0
M  END
