mac-x0124-mac-x0326
     RDKit          3D

 20 21  0  0  0  0  0  0  0  0999 V2000
   -3.5480   15.2210    1.9230 N   0  0  0  0  0  0  0  0  0  0  0  0
   -2.5300   15.3590    0.9130 C   0  0  2  0  0  0  0  0  0  0  0  0
   -3.1950   15.8100   -0.4010 C   0  0  0  0  0  0  0  0  0  0  0  0
   -1.7550   14.1720    0.9510 N   0  0  0  0  0  0  0  0  0  0  0  0
   -3.4920   14.8230   -1.5410 C   0  0  1  0  0  0  0  0  0  0  0  0
   -0.3270   14.2740    1.1700 C   0  0  0  0  0  0  0  0  0  0  0  0
   -5.3030   14.9130   -1.7240 Cl  0  0  0  0  0  0  0  0  0  0  0  0
   -2.7230   15.0470   -2.8990 C   0  0  1  0  0  0  0  0  0  0  0  0
    0.1390   15.2790    0.2520 N   0  0  0  0  0  0  0  0  0  0  0  0
   -0.7430   15.4210   -0.8840 C   0  0  0  0  0  0  0  0  0  0  0  0
   -1.3140   14.4210   -3.1720 C   0  0  2  0  0  0  0  0  0  0  0  0
   -3.5180   14.5280   -4.1100 C   0  0  0  0  0  0  0  0  0  0  0  0
   -2.5530   14.3680   -5.2110 N   0  0  0  0  0  0  0  0  0  0  0  0
   -0.1780   15.0910   -2.2740 C   0  0  2  0  0  0  0  0  0  0  0  0
   -1.2380   14.7660   -4.6670 C   0  0  0  0  0  0  0  0  0  0  0  0
    1.1810   14.3200   -2.1160 C   0  0  0  0  0  0  0  0  0  0  0  0
    0.9500   12.8840   -2.0350 N   0  0  0  0  0  0  0  0  0  0  0  0
    0.8370   12.2060   -3.1030 C   0  0  0  0  0  0  0  0  0  0  0  0
    0.5810   10.8900   -2.9630 O   0  0  0  0  0  0  0  0  0  0  0  0
    0.9420   12.6800   -4.5240 C   0  0  0  0  0  0  0  0  0  0  0  0
  2  1  1  1
  2  3  1  0
  2  4  1  0
  3  5  1  0
  4  6  1  0
  5  7  1  6
  5  8  1  0
  6  9  1  0
  9 10  1  0
  8 11  1  0
  8 12  1  6
 12 13  1  0
 10 14  1  0
 11 14  1  0
 11 15  1  6
 13 15  1  0
 14 16  1  1
 16 17  1  0
 17 18  2  3
 18 19  1  0
 18 20  1  0
M  END
