mac-x0303-diamond-x1018_0_A
     RDKit          3D

 13 14  0  0  0  0  0  0  0  0999 V2000
   -8.4540   12.9360    2.6810 N   0  0  0  0  0  0  0  0  0  0  0  0
   -8.5580   14.4990    2.0330 S   0  0  0  0  0  0  0  0  0  0  0  0
   -8.3940   15.3880    3.1580 O   0  0  0  0  0  0  0  0  0  0  0  0
   -9.7290   14.4930    1.1970 O   0  0  0  0  0  0  0  0  0  0  0  0
   -7.1430   14.7020    1.0030 C   0  0  0  0  0  0  0  0  0  0  0  0
   -7.2280   14.9160   -0.3470 N   0  0  0  0  0  0  0  0  0  0  0  0
   -5.8860   14.6830    1.3920 N   0  0  0  0  0  0  0  0  0  0  0  0
   -5.9550   15.0410   -0.8420 C   0  0  0  0  0  0  0  0  0  0  0  0
   -5.1390   14.8890    0.2720 C   0  0  0  0  0  0  0  0  0  0  0  0
   -5.4590   15.2660   -2.1190 C   0  0  0  0  0  0  0  0  0  0  0  0
   -3.7500   14.9580    0.1310 C   0  0  0  0  0  0  0  0  0  0  0  0
   -4.0700   15.3320   -2.2470 C   0  0  0  0  0  0  0  0  0  0  0  0
   -3.2300   15.1800   -1.1450 C   0  0  0  0  0  0  0  0  0  0  0  0
  2  1  1  0
  2  3  2  0
  2  4  2  0
  2  5  1  0
  5  6  1  0
  5  7  2  0
  6  8  1  0
  7  9  1  0
  8  9  2  0
  8 10  1  0
  9 11  1  0
 10 12  2  0
 11 13  2  0
 12 13  1  0
M  END
