mac-x0224-mac-x0433
     RDKit          3D

 20 21  0  0  0  0  0  0  0  0999 V2000
   -3.6020   15.9900    1.4350 C   0  0  0  0  0  0  0  0  0  0  0  0
   -3.7070   14.5280    0.5830 S   0  0  2  0  0  0  0  0  0  0  0  0
   -2.8550   14.6480   -0.8920 C   0  0  0  0  0  0  0  0  0  0  0  0
   -5.2730   14.6380    0.0080 C   0  0  0  0  0  0  0  0  0  0  0  0
   -1.5290   14.3190   -1.0270 C   0  0  0  0  0  0  0  0  0  0  0  0
   -3.6290   15.1000   -1.9520 C   0  0  0  0  0  0  0  0  0  0  0  0
   -5.2580   14.8190   -1.3000 N   0  0  0  0  0  0  0  0  0  0  0  0
   -6.3210   14.5530    0.8290 C   0  0  0  0  0  0  0  0  0  0  0  0
   -0.9590   14.4400   -2.2970 C   0  0  0  0  0  0  0  0  0  0  0  0
   -3.0760   15.2180   -3.2050 C   0  0  0  0  0  0  0  0  0  0  0  0
   -6.4380   14.9230   -1.8530 C   0  0  0  0  0  0  0  0  0  0  0  0
   -7.5040   14.6780    0.1720 C   0  0  0  0  0  0  0  0  0  0  0  0
    0.4670   14.0790   -2.4180 C   0  0  0  0  0  0  0  0  0  0  0  0
   -8.7720   14.6090    0.9480 C   0  0  0  0  0  0  0  0  0  0  0  0
   -6.4690   15.0940   -3.2170 N   0  0  0  0  0  0  0  0  0  0  0  0
   -1.7400   14.8840   -3.3780 C   0  0  0  0  0  0  0  0  0  0  0  0
   -7.5880   14.8640   -1.1720 N   0  0  0  0  0  0  0  0  0  0  0  0
   -1.1960   14.9980   -4.6270 O   0  0  0  0  0  0  0  0  0  0  0  0
    1.2020   13.9960   -1.4570 O   0  0  0  0  0  0  0  0  0  0  0  0
    0.8840   13.8520   -3.6760 O   0  0  0  0  0  0  0  0  0  0  0  0
  2  1  1  1
  2  3  1  0
  2  4  1  0
  3  5  2  0
  3  6  1  0
  4  7  2  0
  4  8  1  0
  5  9  1  0
  6 10  2  0
  7 11  1  0
  8 12  2  0
  9 13  1  0
 12 14  1  0
 11 15  1  0
  9 16  2  0
 10 16  1  0
 11 17  2  0
 12 17  1  0
 16 18  1  0
 13 19  2  0
 13 20  1  0
M  END
