mac-x0358-mac-x0231
     RDKit          3D

 16 17  0  0  0  0  0  0  0  0999 V2000
    1.6830   12.3780   -2.0520 O   0  0  0  0  0  0  0  0  0  0  0  0
    0.7970   11.9380   -2.9510 C   0  0  0  0  0  0  0  0  0  0  0  0
   -0.3710   11.5120   -2.7020 N   0  0  0  0  0  0  0  0  0  0  0  0
   -1.2540   11.0920   -3.7790 C   0  0  0  0  0  0  0  0  0  0  0  0
   -0.8750   11.4380   -5.1200 O   0  0  0  0  0  0  0  0  0  0  0  0
   -1.0740   12.8130   -5.5400 C   0  0  2  0  0  0  0  0  0  0  0  0
   -0.2710   13.7520   -4.5910 C   0  0  2  0  0  0  0  0  0  0  0  0
   -2.5420   13.1250   -5.5780 C   0  0  0  0  0  0  0  0  0  0  0  0
   -3.0370   14.3450   -5.3540 C   0  0  0  0  0  0  0  0  0  0  0  0
   -0.8080   15.2090   -4.3940 C   0  0  2  0  0  0  0  0  0  0  0  0
    1.2150   13.7920   -4.9990 C   0  0  0  0  0  0  0  0  0  0  0  0
   -2.1730   15.5250   -5.0330 C   0  0  0  0  0  0  0  0  0  0  0  0
    0.2520   16.2740   -4.7530 C   0  0  0  0  0  0  0  0  0  0  0  0
    2.0120   14.7050   -4.1790 N   0  0  0  0  0  0  0  0  0  0  0  0
   -0.0020   17.3170   -5.3550 O   0  0  0  0  0  0  0  0  0  0  0  0
    1.5490   16.0170   -4.3320 N   0  0  0  0  0  0  0  0  0  0  0  0
  1  2  1  0
  2  3  2  3
  3  4  1  0
  4  5  1  0
  6  5  1  1
  6  7  1  0
  6  8  1  0
  8  9  2  0
  7 10  1  0
  7 11  1  6
  9 12  1  0
 10 12  1  6
 10 13  1  0
 11 14  1  0
 13 15  2  0
 13 16  1  0
 14 16  1  0
M  END
