mac-x0306-diamond-x0685_0_A
     RDKit          3D

 15 16  0  0  0  0  0  0  0  0999 V2000
   -4.9470   15.0760    1.7870 N   0  0  0  0  0  0  0  0  0  0  0  0
   -5.5900   14.0660    2.6530 C   0  0  0  0  0  0  0  0  0  0  0  0
   -6.6780   14.4980    3.6380 C   0  0  0  0  0  0  0  0  0  0  0  0
   -4.6990   14.6340    0.3440 C   0  0  2  0  0  0  0  0  0  0  0  0
   -3.3140   14.9480   -0.3110 C   0  0  0  0  0  0  0  0  0  0  0  0
   -5.8350   15.2850   -0.4980 C   0  0  2  0  0  0  0  0  0  0  0  0
   -7.1470   14.9030    0.1410 C   0  0  0  0  0  0  0  0  0  0  0  0
   -5.7230   14.9960   -1.9560 C   0  0  0  0  0  0  0  0  0  0  0  0
   -3.3680   15.0610   -1.8080 N   0  0  0  0  0  0  0  0  0  0  0  0
   -7.2480   14.7820    1.4990 N   0  0  0  0  0  0  0  0  0  0  0  0
   -8.3010   14.6470   -0.4200 N   0  0  0  0  0  0  0  0  0  0  0  0
   -4.5330   14.9030   -2.5110 C   0  0  0  0  0  0  0  0  0  0  0  0
   -2.2280   14.9430   -2.6040 N   0  0  0  0  0  0  0  0  0  0  0  0
   -9.1540   14.3560    0.6110 C   0  0  0  0  0  0  0  0  0  0  0  0
   -8.5150   14.4320    1.8150 C   0  0  0  0  0  0  0  0  0  0  0  0
  1  2  1  0
  2  3  1  0
  4  1  1  1
  4  5  1  0
  4  6  1  0
  6  7  1  1
  6  8  1  0
  5  9  1  0
  7 10  1  0
  7 11  2  0
  8 12  2  0
  9 12  1  0
  9 13  1  0
 11 14  1  0
 10 15  1  0
 14 15  2  0
M  END
