mac-x0387-diamond-x0592_0_A
     RDKit          3D

 21 23  0  0  0  0  0  0  0  0999 V2000
   -3.5230   14.8750    1.1920 N   0  0  0  0  0  0  0  0  0  0  0  0
   -4.1720   14.3870    0.1270 C   0  0  0  0  0  0  0  0  0  0  0  0
   -3.5250   13.7200   -0.6930 O   0  0  0  0  0  0  0  0  0  0  0  0
   -2.2290   14.7750    0.9200 C   0  0  0  0  0  0  0  0  0  0  0  0
   -2.0410   14.8360   -0.4640 C   0  0  0  0  0  0  0  0  0  0  0  0
   -1.3160   14.6200    1.8390 N   0  0  0  0  0  0  0  0  0  0  0  0
   -5.5220   14.6140   -0.0360 C   0  0  0  0  0  0  0  0  0  0  0  0
   -0.7470   14.7120   -0.9320 C   0  0  0  0  0  0  0  0  0  0  0  0
   -0.0860   14.5150    1.3690 C   0  0  0  0  0  0  0  0  0  0  0  0
   -3.0930   15.0160   -1.4170 C   0  0  0  0  0  0  0  0  0  0  0  0
   -6.2370   15.0800   -1.1600 C   0  0  0  0  0  0  0  0  0  0  0  0
   -6.4250   14.4120    0.9200 C   0  0  0  0  0  0  0  0  0  0  0  0
    0.2580   14.5520    0.0140 C   0  0  0  0  0  0  0  0  0  0  0  0
   -0.5000   14.7540   -2.3190 C   0  0  0  0  0  0  0  0  0  0  0  0
   -2.8520   15.0570   -2.7810 C   0  0  0  0  0  0  0  0  0  0  0  0
   -7.5440   15.1590   -0.8960 N   0  0  0  0  0  0  0  0  0  0  0  0
   -7.6010   14.7400    0.3930 N   0  0  0  0  0  0  0  0  0  0  0  0
   -8.8080   14.6520    1.1480 C   0  0  0  0  0  0  0  0  0  0  0  0
   -1.5500   14.9230   -3.2370 C   0  0  0  0  0  0  0  0  0  0  0  0
   -8.4300   14.2220    2.5670 C   0  0  0  0  0  0  0  0  0  0  0  0
   -7.4610   15.1150    3.1440 O   0  0  0  0  0  0  0  0  0  0  0  0
  1  2  1  0
  2  3  2  0
  1  4  1  0
  4  5  1  0
  4  6  2  0
  2  7  1  0
  5  8  2  0
  6  9  1  0
  5 10  1  0
  7 11  1  0
  7 12  2  0
  8 13  1  0
  9 13  2  0
  8 14  1  0
 10 15  2  0
 11 16  2  0
 12 17  1  0
 16 17  1  0
 17 18  1  0
 14 19  2  0
 15 19  1  0
 18 20  1  0
 20 21  1  0
M  END
