mac-x0180-diamond-x0465_0_A
     RDKit          3D

 27 28  0  0  0  0  0  0  0  0999 V2000
   -7.7590   14.4960    1.5280 C   0  0  0  0  0  0  0  0  0  0  0  0
   -6.7840   14.7100    0.3990 C   0  0  0  0  0  0  0  0  0  0  0  0
   -7.1820   14.7790   -0.7580 O   0  0  0  0  0  0  0  0  0  0  0  0
   -5.4710   14.8180    0.8360 N   0  0  0  0  0  0  0  0  0  0  0  0
   -4.3410   14.8450   -0.0060 C   0  0  0  0  0  0  0  0  0  0  0  0
   -3.0390   14.6260    0.4390 C   0  0  0  0  0  0  0  0  0  0  0  0
   -4.5580   15.1070   -1.3720 C   0  0  0  0  0  0  0  0  0  0  0  0
   -1.9660   14.6620   -0.4630 C   0  0  0  0  0  0  0  0  0  0  0  0
   -3.4900   15.1430   -2.2750 C   0  0  0  0  0  0  0  0  0  0  0  0
   -2.1840   14.9180   -1.8280 C   0  0  0  0  0  0  0  0  0  0  0  0
   -1.0120   14.9550   -2.7540 C   0  0  0  0  0  0  0  0  0  0  0  0
   -1.1190   14.8980   -3.9670 O   0  0  0  0  0  0  0  0  0  0  0  0
    0.1300   15.0800   -2.0410 O   0  0  0  0  0  0  0  0  0  0  0  0
    1.2190   14.1980   -2.3390 C   0  0  0  0  0  0  0  0  0  0  0  0
    0.9390   12.7740   -2.1230 N   0  0  0  0  0  0  0  0  0  0  0  0
    0.7350   12.0050   -3.1380 C   0  0  0  0  0  0  0  0  0  0  0  0
    0.7830   12.5140   -4.5890 C   0  0  1  0  0  0  0  0  0  0  0  0
    0.4650   10.6880   -2.9740 O   0  0  0  0  0  0  0  0  0  0  0  0
    2.1520   13.1130   -4.8640 C   0  0  0  0  0  0  0  0  0  0  0  0
    0.6080   11.4060   -5.4870 O   0  0  0  0  0  0  0  0  0  0  0  0
   -0.6100   10.7990   -5.6070 C   0  0  0  0  0  0  0  0  0  0  0  0
   -0.6880    9.7760   -6.5630 C   0  0  0  0  0  0  0  0  0  0  0  0
   -1.7490   11.1150   -4.8670 C   0  0  0  0  0  0  0  0  0  0  0  0
    0.3840    9.4440   -7.3000 F   0  0  0  0  0  0  0  0  0  0  0  0
   -1.8680    9.0760   -6.7790 C   0  0  0  0  0  0  0  0  0  0  0  0
   -2.9400   10.4120   -5.0840 C   0  0  0  0  0  0  0  0  0  0  0  0
   -2.9990    9.3950   -6.0360 C   0  0  0  0  0  0  0  0  0  0  0  0
  1  2  1  0
  2  3  2  0
  2  4  1  0
  4  5  1  0
  5  6  2  0
  5  7  1  0
  6  8  1  0
  7  9  2  0
  8 10  2  0
  9 10  1  0
 10 11  1  0
 11 12  2  0
 11 13  1  0
 13 14  1  0
 14 15  1  0
 15 16  2  3
 16 17  1  0
 16 18  1  0
 17 19  1  6
 17 20  1  0
 20 21  1  0
 21 22  2  0
 21 23  1  0
 22 24  1  0
 22 25  1  0
 23 26  2  0
 25 27  2  0
 26 27  1  0
M  END
