mac-x0284-mac-x0139
     RDKit          3D

 23 26  0  0  0  0  0  0  0  0999 V2000
   -5.5620   15.1920   -1.1810 C   0  0  0  0  0  0  0  0  0  0  0  0
   -4.5590   14.9510   -2.2780 C   0  0  0  0  0  0  0  0  0  0  0  0
   -4.9560   14.8090   -3.5920 C   0  0  0  0  0  0  0  0  0  0  0  0
   -3.1980   14.8690   -1.9890 C   0  0  0  0  0  0  0  0  0  0  0  0
   -2.2030   14.6520   -2.9680 C   0  0  0  0  0  0  0  0  0  0  0  0
   -4.0070   14.5970   -4.5950 C   0  0  0  0  0  0  0  0  0  0  0  0
   -0.7500   14.5830   -2.4560 C   0  0  1  0  0  0  0  0  0  0  0  0
   -2.6440   14.5220   -4.2860 C   0  0  0  0  0  0  0  0  0  0  0  0
   -1.7590   14.3160   -5.3040 O   0  0  0  0  0  0  0  0  0  0  0  0
   -0.2980   13.1460   -2.4010 N   0  0  0  0  0  0  0  0  0  0  0  0
    0.1840   15.3720   -3.2210 O   0  0  0  0  0  0  0  0  0  0  0  0
   -0.8290   15.0690   -0.9530 C   0  0  1  0  0  0  0  0  0  0  0  0
    1.2640   14.5100   -3.5970 C   0  0  0  0  0  0  0  0  0  0  0  0
    0.8090   13.2040   -3.0490 C   0  0  0  0  0  0  0  0  0  0  0  0
   -2.2270   14.6920   -0.3860 C   0  0  1  0  0  0  0  0  0  0  0  0
    0.3080   14.6140   -0.1060 N   0  0  0  0  0  0  0  0  0  0  0  0
    1.5490   12.1100   -3.2370 O   0  0  0  0  0  0  0  0  0  0  0  0
   -2.2890   14.5000    1.1490 C   0  0  1  0  0  0  0  0  0  0  0  0
   -0.1950   13.7910    0.9520 C   0  0  0  0  0  0  0  0  0  0  0  0
   -3.1850   15.8380   -0.5600 C   0  0  0  0  0  0  0  0  0  0  0  0
   -1.0180   14.6170    1.7410 N   0  0  0  0  0  0  0  0  0  0  0  0
   -3.4670   15.2250    1.5640 N   0  0  0  0  0  0  0  0  0  0  0  0
   -3.8360   16.0620    0.5740 C   0  0  0  0  0  0  0  0  0  0  0  0
  1  2  1  0
  2  3  2  0
  2  4  1  0
  4  5  2  0
  3  6  1  0
  7  5  1  6
  5  8  1  0
  6  8  2  0
  8  9  1  0
  7 10  1  0
  7 11  1  0
  7 12  1  0
 11 13  1  0
 10 14  2  0
 13 14  1  0
 12 15  1  0
 12 16  1  1
 14 17  1  0
 15 18  1  0
 16 19  1  0
 15 20  1  1
 18 21  1  1
 19 21  1  0
 18 22  1  0
 20 23  2  0
 22 23  1  0
M  END
