mac-x0415-mac-x0358
     RDKit          3D

 21 23  0  0  0  0  0  0  0  0999 V2000
    0.7190   11.1880   -2.8310 O   0  0  0  0  0  0  0  0  0  0  0  0
    1.1740   12.4110   -3.1820 C   0  0  0  0  0  0  0  0  0  0  0  0
    2.3570   12.6690   -3.0820 O   0  0  0  0  0  0  0  0  0  0  0  0
    0.0490   13.3230   -3.6140 C   0  0  1  0  0  0  0  0  0  0  0  0
    0.2690   14.7540   -3.9360 C   0  0  0  0  0  0  0  0  0  0  0  0
   -0.9820   12.8830   -4.6320 C   0  0  0  0  0  0  0  0  0  0  0  0
    1.4810   15.5710   -3.9970 C   0  0  0  0  0  0  0  0  0  0  0  0
   -0.6200   15.6230   -4.3340 C   0  0  0  0  0  0  0  0  0  0  0  0
   -1.4930   11.5900   -4.7550 C   0  0  0  0  0  0  0  0  0  0  0  0
   -1.4760   13.8560   -5.5090 C   0  0  0  0  0  0  0  0  0  0  0  0
   -1.0460   10.5990   -3.9340 O   0  0  0  0  0  0  0  0  0  0  0  0
    1.3310   16.8160   -4.3950 N   0  0  0  0  0  0  0  0  0  0  0  0
   -0.0980   16.9840   -4.5600 C   0  0  1  0  0  0  0  0  0  0  0  0
   -1.9780   15.3070   -4.5950 C   0  0  0  0  0  0  0  0  0  0  0  0
   -2.4660   11.2960   -5.7110 C   0  0  0  0  0  0  0  0  0  0  0  0
   -2.4440   13.5640   -6.4560 C   0  0  0  0  0  0  0  0  0  0  0  0
   -0.7470   17.6480   -5.7230 C   0  0  0  0  0  0  0  0  0  0  0  0
   -2.6130   16.0270   -5.5090 C   0  0  0  0  0  0  0  0  0  0  0  0
   -2.9390   12.2890   -6.5570 C   0  0  0  0  0  0  0  0  0  0  0  0
   -4.3140   15.4650   -6.0170 Br  0  0  0  0  0  0  0  0  0  0  0  0
   -1.9570   17.1920   -6.1460 C   0  0  0  0  0  0  0  0  0  0  0  0
  1  2  1  0
  2  3  2  0
  4  2  1  6
  4  5  1  0
  4  6  1  0
  5  7  1  0
  5  8  2  0
  6  9  2  0
  6 10  1  0
  9 11  1  0
  7 12  2  0
  8 13  1  0
 12 13  1  0
  8 14  1  0
  9 15  1  0
 10 16  2  0
 13 17  1  6
 14 18  2  0
 15 19  2  0
 16 19  1  0
 18 20  1  0
 17 21  2  0
 18 21  1  0
M  END
