mac-x0394-mac-x0224
     RDKit          3D

 21 22  0  0  0  0  0  0  0  0999 V2000
    1.1150   18.4260   -5.2860 Cl  0  0  0  0  0  0  0  0  0  0  0  0
    0.3180   16.9580   -5.0260 C   0  0  0  0  0  0  0  0  0  0  0  0
   -1.0130   16.8980   -5.3870 C   0  0  0  0  0  0  0  0  0  0  0  0
    0.9860   15.8640   -4.4730 C   0  0  0  0  0  0  0  0  0  0  0  0
    0.2890   14.6720   -4.2830 C   0  0  0  0  0  0  0  0  0  0  0  0
   -1.6930   15.7220   -5.2050 C   0  0  0  0  0  0  0  0  0  0  0  0
   -3.3500   15.6100   -5.6530 Cl  0  0  0  0  0  0  0  0  0  0  0  0
    0.9000   13.4350   -3.6740 C   0  0  0  0  0  0  0  0  0  0  0  0
   -1.0460   14.6190   -4.6620 C   0  0  0  0  0  0  0  0  0  0  0  0
   -0.0180   12.9030   -2.5210 C   0  0  0  0  0  0  0  0  0  0  0  0
   -0.3850   11.5540   -2.7890 O   0  0  0  0  0  0  0  0  0  0  0  0
    0.7950   12.7860   -1.3550 O   0  0  0  0  0  0  0  0  0  0  0  0
   -1.3170   13.7090   -2.1840 C   0  0  0  0  0  0  0  0  0  0  0  0
   -1.6110   14.0560   -0.8370 C   0  0  0  0  0  0  0  0  0  0  0  0
   -2.2820   14.1440   -3.1220 C   0  0  0  0  0  0  0  0  0  0  0  0
   -2.1300   13.8660   -4.4430 O   0  0  0  0  0  0  0  0  0  0  0  0
   -2.7640   14.7710   -0.4710 C   0  0  0  0  0  0  0  0  0  0  0  0
   -3.4320   14.8660   -2.7660 C   0  0  0  0  0  0  0  0  0  0  0  0
   -3.0930   15.1690    1.2280 S   0  0  0  0  0  0  0  0  0  0  0  0
   -3.6730   15.1800   -1.4390 C   0  0  0  0  0  0  0  0  0  0  0  0
   -4.8970   15.0540    1.2590 C   0  0  0  0  0  0  0  0  0  0  0  0
  1  2  1  0
  2  3  2  0
  2  4  1  0
  4  5  2  0
  3  6  1  0
  6  7  1  0
  5  8  1  0
  5  9  1  0
  6  9  2  0
  8 10  1  0
 10 11  1  0
 10 12  1  0
 10 13  1  0
 13 14  2  0
 13 15  1  0
 15 16  1  0
 14 17  1  0
 15 18  2  0
 17 19  1  0
 17 20  2  0
 18 20  1  0
 19 21  1  0
M  END
