mac-x0305-mac-x0212
     RDKit          3D

 17 18  0  0  0  0  0  0  0  0999 V2000
    0.2510   12.7880   -1.0880 O   0  0  0  0  0  0  0  0  0  0  0  0
   -0.3190   14.0760   -1.1710 C   0  0  1  0  0  0  0  0  0  0  0  0
   -0.4010   14.3990   -2.6050 N   0  0  0  0  0  0  0  0  0  0  0  0
   -1.7870   14.0890   -0.7060 C   0  0  1  0  0  0  0  0  0  0  0  0
   -1.8240   14.3750   -2.9200 C   0  0  1  0  0  0  0  0  0  0  0  0
   -2.0750   14.4440    0.7840 C   0  0  1  0  0  0  0  0  0  0  0  0
   -2.4120   14.9210   -1.7330 N   0  0  0  0  0  0  0  0  0  0  0  0
   -1.0230   15.0960    1.4930 O   0  0  0  0  0  0  0  0  0  0  0  0
   -2.0430   15.1100   -4.0920 O   0  0  0  0  0  0  0  0  0  0  0  0
   -3.3500   15.2600    0.9060 C   0  0  0  0  0  0  0  0  0  0  0  0
   -3.8560   15.0750   -1.5800 C   0  0  0  0  0  0  0  0  0  0  0  0
   -4.3490   14.7560   -0.1380 C   0  0  2  0  0  0  0  0  0  0  0  0
   -5.6730   15.3290    0.1770 N   0  0  0  0  0  0  0  0  0  0  0  0
   -6.9540   14.3650    0.6940 S   0  0  0  0  0  0  0  0  0  0  0  0
   -6.1560   12.8590    1.2190 C   0  0  0  0  0  0  0  0  0  0  0  0
   -7.5320   14.9820    1.8700 O   0  0  0  0  0  0  0  0  0  0  0  0
   -7.7660   14.0990   -0.4660 O   0  0  0  0  0  0  0  0  0  0  0  0
  2  1  1  6
  2  3  1  0
  2  4  1  0
  3  5  1  0
  4  6  1  0
  4  7  1  6
  5  7  1  0
  6  8  1  6
  5  9  1  6
  6 10  1  0
  7 11  1  0
 10 12  1  0
 11 12  1  0
 12 13  1  1
 14 13  1  0
 14 15  1  0
 14 16  2  0
 14 17  2  0
M  END
