mac-x0510-diamond-x0962_0_A
     RDKit          3D

 12 13  0  0  0  0  0  0  0  0999 V2000
   -5.9810   15.0230    1.0140 O   0  0  0  0  0  0  0  0  0  0  0  0
   -4.8230   15.0350    0.6300 C   0  0  0  0  0  0  0  0  0  0  0  0
   -4.6130   15.1630   -0.7250 N   0  0  0  0  0  0  0  0  0  0  0  0
   -3.8130   14.9010    1.5630 N   0  0  0  0  0  0  0  0  0  0  0  0
   -2.6210   14.8200    1.1270 C   0  0  0  0  0  0  0  0  0  0  0  0
   -3.4120   15.0840   -1.1660 C   0  0  0  0  0  0  0  0  0  0  0  0
   -3.3100   15.2240   -2.5570 C   0  0  0  0  0  0  0  0  0  0  0  0
   -2.3170   14.8810   -0.2700 C   0  0  0  0  0  0  0  0  0  0  0  0
   -1.4620   14.6690    1.8080 N   0  0  0  0  0  0  0  0  0  0  0  0
   -3.2040   15.3400   -3.7140 C   0  0  0  0  0  0  0  0  0  0  0  0
   -1.0420   14.7480   -0.4460 N   0  0  0  0  0  0  0  0  0  0  0  0
   -0.5780   14.6300    0.8560 C   0  0  0  0  0  0  0  0  0  0  0  0
  1  2  2  0
  2  3  1  0
  2  4  1  0
  4  5  2  0
  3  6  2  0
  6  7  1  0
  5  8  1  0
  6  8  1  0
  5  9  1  0
  7 10  3  0
  8 11  2  0
  9 12  2  0
 11 12  1  0
M  END
