mac-x0455-diamond-x1018_0_A
     RDKit          3D

 23 25  0  0  0  0  0  0  0  0999 V2000
   -1.7400   13.2750   -1.9750 C   0  0  0  0  0  0  0  0  0  0  0  0
   -0.9290   13.9170   -3.1080 C   0  0  1  0  0  0  0  0  0  0  0  0
   -1.5000   15.1430   -3.6200 O   0  0  0  0  0  0  0  0  0  0  0  0
    0.4960   14.1310   -2.5570 C   0  0  0  0  0  0  0  0  0  0  0  0
   -0.9060   12.8520   -4.2280 C   0  0  0  0  0  0  0  0  0  0  0  0
    1.0880   15.1830   -2.4120 O   0  0  0  0  0  0  0  0  0  0  0  0
    1.1010   12.9750   -2.2040 O   0  0  0  0  0  0  0  0  0  0  0  0
   -2.9260   15.2890   -3.5590 C   0  0  0  0  0  0  0  0  0  0  0  0
   -1.9630   11.9320   -4.3580 C   0  0  0  0  0  0  0  0  0  0  0  0
    0.1640   12.7600   -5.1440 C   0  0  0  0  0  0  0  0  0  0  0  0
   -1.9560   10.9590   -5.3550 C   0  0  0  0  0  0  0  0  0  0  0  0
    0.1700   11.7870   -6.1400 C   0  0  0  0  0  0  0  0  0  0  0  0
   -3.6100   14.6210   -2.4140 N   0  0  0  0  0  0  0  0  0  0  0  0
   -0.8900   10.8840   -6.2470 C   0  0  0  0  0  0  0  0  0  0  0  0
   -3.1000   14.9650   -1.0640 N   0  0  0  0  0  0  0  0  0  0  0  0
   -5.0050   14.9730   -2.4540 N   0  0  0  0  0  0  0  0  0  0  0  0
   -5.3530   14.9390   -1.1240 N   0  0  0  0  0  0  0  0  0  0  0  0
   -4.2650   15.3570   -0.2730 C   0  0  1  0  0  0  0  0  0  0  0  0
   -6.6550   14.8770   -0.7610 N   0  0  0  0  0  0  0  0  0  0  0  0
   -4.4580   14.7300    1.0570 C   0  0  0  0  0  0  0  0  0  0  0  0
   -6.8110   14.5980    0.4900 C   0  0  0  0  0  0  0  0  0  0  0  0
   -5.6930   14.3580    1.4480 C   0  0  0  0  0  0  0  0  0  0  0  0
   -8.4460   14.5100    1.0400 Cl  0  0  0  0  0  0  0  0  0  0  0  0
  2  1  1  1
  2  3  1  0
  2  4  1  0
  2  5  1  0
  4  6  2  0
  4  7  1  0
  3  8  1  0
  5  9  2  0
  5 10  1  0
  9 11  1  0
 10 12  2  0
  8 13  1  0
 11 14  2  0
 12 14  1  0
 13 15  1  0
 13 16  1  0
 16 17  1  0
 15 18  1  0
 17 18  1  0
 17 19  1  0
 18 20  1  1
 19 21  2  0
 20 22  2  0
 21 22  1  0
 21 23  1  0
M  END
