mac-x0441-mac-x0439
     RDKit          3D

 29 32  0  0  0  0  0  0  0  0999 V2000
    0.1500   10.8660   -3.1990 O   0  0  0  0  0  0  0  0  0  0  0  0
    0.7760   12.0400   -3.4290 C   0  0  0  0  0  0  0  0  0  0  0  0
    1.2860   12.7270   -2.4610 N   0  0  0  0  0  0  0  0  0  0  0  0
    0.8740   12.5410   -4.8600 C   0  0  0  0  0  0  0  0  0  0  0  0
    1.9890   13.9530   -2.8490 C   0  0  2  0  0  0  0  0  0  0  0  0
    0.4200   11.6400   -5.9060 N   0  0  0  0  0  0  0  0  0  0  0  0
    2.6540   14.6800   -1.8430 O   0  0  0  0  0  0  0  0  0  0  0  0
    1.1480   11.6400   -7.0530 N   0  0  0  0  0  0  0  0  0  0  0  0
   -0.6340   10.7710   -5.9570 C   0  0  0  0  0  0  0  0  0  0  0  0
    1.1290   14.8940   -3.6710 C   0  0  0  0  0  0  0  0  0  0  0  0
    0.5350   10.7400   -7.8550 C   0  0  0  0  0  0  0  0  0  0  0  0
   -0.5750   10.1780   -7.2010 C   0  0  0  0  0  0  0  0  0  0  0  0
   -1.6630   10.4820   -4.9260 C   0  0  0  0  0  0  0  0  0  0  0  0
   -0.1150   14.6970   -4.1290 C   0  0  0  0  0  0  0  0  0  0  0  0
    1.6370   16.1230   -4.0340 N   0  0  0  0  0  0  0  0  0  0  0  0
    0.9520   10.3660   -9.2590 C   0  0  0  0  0  0  0  0  0  0  0  0
   -1.5410    9.1520   -7.6790 C   0  0  0  0  0  0  0  0  0  0  0  0
   -2.8630    9.7820   -5.5980 C   0  0  0  0  0  0  0  0  0  0  0  0
   -0.4500   15.8230   -5.0220 C   0  0  2  0  0  0  0  0  0  0  0  0
    0.7350   16.6830   -4.7630 C   0  0  0  0  0  0  0  0  0  0  0  0
    1.6540    9.2040   -9.2800 F   0  0  0  0  0  0  0  0  0  0  0  0
   -0.1100   10.1810  -10.0780 F   0  0  0  0  0  0  0  0  0  0  0  0
    1.6900   11.2910   -9.9010 F   0  0  0  0  0  0  0  0  0  0  0  0
   -2.4150    8.6380   -6.5240 C   0  0  0  0  0  0  0  0  0  0  0  0
   -1.7090   16.5900   -5.1560 C   0  0  0  0  0  0  0  0  0  0  0  0
    0.7900   18.0280   -5.3830 C   0  0  0  0  0  0  0  0  0  0  0  0
   -3.1740   15.7380   -4.8980 Cl  0  0  0  0  0  0  0  0  0  0  0  0
   -1.6650   17.8920   -5.4990 C   0  0  0  0  0  0  0  0  0  0  0  0
   -0.3980   18.5620   -5.7240 C   0  0  0  0  0  0  0  0  0  0  0  0
  1  2  1  0
  2  3  2  3
  2  4  1  0
  3  5  1  0
  4  6  1  0
  5  7  1  1
  6  8  1  0
  6  9  1  0
  5 10  1  0
  8 11  2  0
  9 12  2  0
 11 12  1  0
  9 13  1  0
 10 14  2  0
 10 15  1  0
 11 16  1  0
 12 17  1  0
 13 18  1  0
 19 14  1  1
 15 20  2  0
 19 20  1  0
 16 21  1  0
 16 22  1  0
 16 23  1  0
 17 24  1  0
 18 24  1  0
 19 25  1  0
 20 26  1  0
 25 27  1  0
 25 28  2  0
 26 29  2  0
 28 29  1  0
M  END
