mac-x0301-diamond-x0895_1_A
     RDKit          3D

 14 15  0  0  0  0  0  0  0  0999 V2000
    0.2210   14.6730   -3.0890 O   0  0  0  0  0  0  0  0  0  0  0  0
   -1.1180   14.5860   -3.2100 C   0  0  0  0  0  0  0  0  0  0  0  0
   -1.6400   14.4110   -4.3010 O   0  0  0  0  0  0  0  0  0  0  0  0
   -1.8860   14.7080   -1.9250 C   0  0  0  0  0  0  0  0  0  0  0  0
   -1.3040   14.5650   -0.6120 C   0  0  0  0  0  0  0  0  0  0  0  0
   -3.2260   14.9720   -2.0000 C   0  0  0  0  0  0  0  0  0  0  0  0
   -1.9150   14.8240    0.5220 C   0  0  0  0  0  0  0  0  0  0  0  0
   -4.0410   15.0930   -0.7410 C   0  0  0  0  0  0  0  0  0  0  0  0
   -0.0210   14.1240   -0.4100 O   0  0  0  0  0  0  0  0  0  0  0  0
   -5.2700   15.0110   -0.6980 O   0  0  0  0  0  0  0  0  0  0  0  0
   -3.2630   15.2990    0.5480 C   0  0  0  0  0  0  0  0  0  0  0  0
   -1.1860   14.6170    1.6550 O   0  0  0  0  0  0  0  0  0  0  0  0
    0.0600   14.3530    1.0320 C   0  0  0  0  0  0  0  0  0  0  0  0
   -3.6990   15.8130    1.5300 O   0  0  0  0  0  0  0  0  0  0  0  0
  1  2  1  0
  2  3  2  0
  2  4  1  0
  4  5  1  0
  4  6  2  0
  5  7  2  0
  6  8  1  0
  5  9  1  0
  8 10  2  0
  7 11  1  0
  8 11  1  0
  7 12  1  0
  9 13  1  0
 12 13  1  0
 11 14  2  0
M  END
