mac-x0396-mac-x0411
     RDKit          3D

 25 26  0  0  0  0  0  0  0  0999 V2000
   -2.9710   15.1130    1.2250 N   0  0  0  0  0  0  0  0  0  0  0  0
   -3.5750   14.9420   -0.0000 C   0  0  0  0  0  0  0  0  0  0  0  0
   -2.9200   14.8300   -1.1100 N   0  0  0  0  0  0  0  0  0  0  0  0
   -5.0720   14.8660   -0.0070 C   0  0  0  0  0  0  0  0  0  0  0  0
   -3.5550   14.6600   -2.4130 C   0  0  0  0  0  0  0  0  0  0  0  0
   -5.8670   15.1560   -1.1160 C   0  0  0  0  0  0  0  0  0  0  0  0
   -5.7300   14.4790    1.1610 C   0  0  0  0  0  0  0  0  0  0  0  0
   -3.3250   13.2160   -2.8710 C   0  0  0  0  0  0  0  0  0  0  0  0
   -7.2220   15.0750   -1.1180 N   0  0  0  0  0  0  0  0  0  0  0  0
   -7.1170   14.3910    1.1890 C   0  0  0  0  0  0  0  0  0  0  0  0
   -3.0290   13.1400   -4.3720 C   0  0  0  0  0  0  0  0  0  0  0  0
   -7.8160   14.6960    0.0330 C   0  0  0  0  0  0  0  0  0  0  0  0
   -1.6190   12.5920   -4.6330 C   0  0  0  0  0  0  0  0  0  0  0  0
   -1.6150   11.2730   -5.3890 C   0  0  0  0  0  0  0  0  0  0  0  0
   -0.5050   10.7880   -6.1340 C   0  0  0  0  0  0  0  0  0  0  0  0
   -2.7870   10.4870   -5.3490 C   0  0  0  0  0  0  0  0  0  0  0  0
    0.6810   11.5010   -6.2140 O   0  0  0  0  0  0  0  0  0  0  0  0
   -2.8650    9.2700   -6.0180 C   0  0  0  0  0  0  0  0  0  0  0  0
   -0.6080    9.5510   -6.8140 C   0  0  0  0  0  0  0  0  0  0  0  0
    0.6730    8.8800   -7.7600 Cl  0  0  0  0  0  0  0  0  0  0  0  0
    0.9500   12.4890   -5.2010 C   0  0  0  0  0  0  0  0  0  0  0  0
   -1.7830    8.8040   -6.7490 C   0  0  0  0  0  0  0  0  0  0  0  0
    0.8520   11.9260   -3.7890 C   0  0  0  0  0  0  0  0  0  0  0  0
    1.3650   12.7650   -2.8590 O   0  0  0  0  0  0  0  0  0  0  0  0
    0.3930   10.8540   -3.4310 O   0  0  0  0  0  0  0  0  0  0  0  0
  1  2  1  0
  2  3  2  3
  2  4  1  0
  3  5  1  0
  4  6  2  0
  4  7  1  0
  5  8  1  0
  6  9  1  0
  7 10  2  0
  8 11  1  0
  9 12  2  0
 10 12  1  0
 11 13  1  0
 13 14  1  0
 14 15  2  0
 14 16  1  0
 15 17  1  0
 16 18  2  0
 15 19  1  0
 19 20  1  0
 17 21  1  0
 18 22  1  0
 19 22  2  0
 21 23  1  0
 23 24  1  0
 23 25  2  0
M  END
