mac-x0397-diamond-x0290_0_A
     RDKit          3D

 23 25  0  0  0  0  0  0  0  0999 V2000
   -6.2460   14.7630   -2.9810 Cl  0  0  0  0  0  0  0  0  0  0  0  0
   -4.7650   15.2630   -2.2920 C   0  0  0  0  0  0  0  0  0  0  0  0
   -4.7630   15.3150   -0.9190 C   0  0  0  0  0  0  0  0  0  0  0  0
   -3.6380   15.5860   -3.0210 C   0  0  0  0  0  0  0  0  0  0  0  0
   -5.8010   14.9830   -0.1460 N   0  0  0  0  0  0  0  0  0  0  0  0
   -3.6150   15.7160   -0.2490 C   0  0  0  0  0  0  0  0  0  0  0  0
   -2.4900   15.9750   -2.3450 C   0  0  0  0  0  0  0  0  0  0  0  0
   -5.4440   15.0920    1.0640 C   0  0  0  0  0  0  0  0  0  0  0  0
   -3.8930   15.7000    1.4340 S   0  0  0  0  0  0  0  0  0  0  0  0
   -2.4590   16.0510   -0.9490 C   0  0  0  0  0  0  0  0  0  0  0  0
   -6.2040   14.6450    2.0280 N   0  0  0  0  0  0  0  0  0  0  0  0
   -7.6550   14.5590    1.8820 N   0  0  0  0  0  0  0  0  0  0  0  0
   -5.5110   13.5060    1.6040 C   0  0  0  0  0  0  0  0  0  0  0  0
   -8.1170   14.5690    0.4950 C   0  0  0  0  0  0  0  0  0  0  0  0
   -6.0770   12.6170    0.9630 O   0  0  0  0  0  0  0  0  0  0  0  0
   -4.1320   13.4360    1.8000 N   0  0  0  0  0  0  0  0  0  0  0  0
   -2.9320   13.7790    1.0720 C   0  0  0  0  0  0  0  0  0  0  0  0
   -1.8900   14.1940    1.8570 N   0  0  0  0  0  0  0  0  0  0  0  0
   -2.7650   13.7000   -0.3190 C   0  0  0  0  0  0  0  0  0  0  0  0
   -0.7100   14.5070    1.2700 C   0  0  0  0  0  0  0  0  0  0  0  0
   -1.5210   14.0410   -0.9020 C   0  0  0  0  0  0  0  0  0  0  0  0
   -1.3080   13.9610   -2.3900 C   0  0  0  0  0  0  0  0  0  0  0  0
   -0.4790   14.4500   -0.0830 C   0  0  0  0  0  0  0  0  0  0  0  0
  1  2  1  0
  2  3  2  0
  2  4  1  0
  3  5  1  0
  3  6  1  0
  4  7  2  0
  5  8  2  0
  6  9  1  0
  8  9  1  0
  6 10  2  0
  7 10  1  0
  8 11  1  0
 11 12  1  0
 11 13  1  0
 12 14  1  0
 13 15  2  0
 13 16  1  0
 16 17  1  0
 17 18  2  0
 17 19  1  0
 18 20  1  0
 19 21  2  0
 21 22  1  0
 20 23  2  0
 21 23  1  0
M  END
