mac-x0365-mac-x0204
     RDKit          3D

 20 21  0  0  0  0  0  0  0  0999 V2000
   -0.6580   14.2430   -2.4850 C   0  0  0  0  0  0  0  0  0  0  0  0
   -1.4460   15.2950   -1.6910 C   0  0  0  0  0  0  0  0  0  0  0  0
   -0.8390   16.3090   -1.4810 O   0  0  0  0  0  0  0  0  0  0  0  0
   -0.5120   12.9850   -1.8360 O   0  0  0  0  0  0  0  0  0  0  0  0
    0.6600   14.7190   -2.6980 O   0  0  0  0  0  0  0  0  0  0  0  0
   -1.4200   14.0830   -3.7480 C   0  0  0  0  0  0  0  0  0  0  0  0
   -2.8780   15.2140   -1.2330 C   0  0  0  0  0  0  0  0  0  0  0  0
   -1.8610   15.2270   -4.4200 C   0  0  0  0  0  0  0  0  0  0  0  0
   -1.7350   12.8440   -4.2940 C   0  0  0  0  0  0  0  0  0  0  0  0
   -3.9070   15.2220   -2.1990 C   0  0  0  0  0  0  0  0  0  0  0  0
   -3.2310   15.1400    0.1220 C   0  0  0  0  0  0  0  0  0  0  0  0
   -2.5880   15.0990   -5.5780 C   0  0  0  0  0  0  0  0  0  0  0  0
   -2.4440   12.6880   -5.4320 N   0  0  0  0  0  0  0  0  0  0  0  0
   -3.0400   16.1890   -6.2620 O   0  0  0  0  0  0  0  0  0  0  0  0
   -5.2420   15.1570   -1.7960 C   0  0  0  0  0  0  0  0  0  0  0  0
   -4.5750   15.0760    0.5120 C   0  0  0  0  0  0  0  0  0  0  0  0
   -2.8580   13.8230   -6.0480 C   0  0  0  0  0  0  0  0  0  0  0  0
   -6.2290   15.1620   -2.7000 F   0  0  0  0  0  0  0  0  0  0  0  0
   -5.5730   15.0860   -0.4560 C   0  0  0  0  0  0  0  0  0  0  0  0
   -6.8820   15.0260   -0.0700 O   0  0  0  0  0  0  0  0  0  0  0  0
  1  2  1  0
  2  3  2  0
  1  4  1  0
  1  5  1  0
  1  6  1  0
  2  7  1  0
  6  8  2  0
  6  9  1  0
  7 10  2  0
  7 11  1  0
  8 12  1  0
  9 13  2  0
 12 14  1  0
 10 15  1  0
 11 16  2  0
 12 17  2  0
 13 17  1  0
 15 18  1  0
 15 19  2  0
 16 19  1  0
 19 20  1  0
M  END
