mac-x0375-mac-x0439
     RDKit          3D

 23 25  0  0  0  0  0  0  0  0999 V2000
    1.8250   12.7460   -2.9140 N   0  0  0  0  0  0  0  0  0  0  0  0
    0.9390   11.9820   -3.6060 C   0  0  0  0  0  0  0  0  0  0  0  0
    0.4110   10.9690   -3.1630 O   0  0  0  0  0  0  0  0  0  0  0  0
    1.8180   14.0250   -3.0060 C   0  0  0  0  0  0  0  0  0  0  0  0
    0.7110   12.5200   -5.0240 C   0  0  0  0  0  0  0  0  0  0  0  0
    2.7910   14.6000   -2.2660 O   0  0  0  0  0  0  0  0  0  0  0  0
    1.0430   15.1100   -3.7030 C   0  0  0  0  0  0  0  0  0  0  0  0
    0.6460   11.5400   -6.0410 O   0  0  0  0  0  0  0  0  0  0  0  0
   -0.2710   15.3600   -3.5700 C   0  0  0  0  0  0  0  0  0  0  0  0
    1.6550   15.9950   -4.5510 N   0  0  0  0  0  0  0  0  0  0  0  0
   -0.5170   10.8450   -6.1520 C   0  0  0  0  0  0  0  0  0  0  0  0
   -0.5910   16.5930   -4.3630 C   0  0  1  0  0  0  0  0  0  0  0  0
    0.7490   16.8410   -4.9210 C   0  0  0  0  0  0  0  0  0  0  0  0
   -0.3920    9.5620   -6.6950 C   0  0  0  0  0  0  0  0  0  0  0  0
   -1.7760   11.3010   -5.7790 C   0  0  0  0  0  0  0  0  0  0  0  0
   -1.6670   16.7680   -5.3630 C   0  0  0  0  0  0  0  0  0  0  0  0
    0.8750   18.0510   -5.7700 C   0  0  0  0  0  0  0  0  0  0  0  0
   -3.0950   15.8160   -5.2460 Cl  0  0  0  0  0  0  0  0  0  0  0  0
   -1.5070    8.7470   -6.8560 C   0  0  0  0  0  0  0  0  0  0  0  0
   -2.8930   10.4840   -5.9460 C   0  0  0  0  0  0  0  0  0  0  0  0
   -1.4980   17.6860   -6.3220 C   0  0  0  0  0  0  0  0  0  0  0  0
   -0.2510   18.4360   -6.4160 C   0  0  0  0  0  0  0  0  0  0  0  0
   -2.7620    9.2090   -6.4810 C   0  0  0  0  0  0  0  0  0  0  0  0
  1  2  1  0
  2  3  2  0
  1  4  2  3
  2  5  1  0
  4  6  1  0
  4  7  1  0
  5  8  1  0
  7  9  2  0
  7 10  1  0
  8 11  1  0
 12  9  1  6
 10 13  2  0
 12 13  1  0
 11 14  2  0
 11 15  1  0
 12 16  1  0
 13 17  1  0
 16 18  1  0
 14 19  1  0
 15 20  2  0
 16 21  2  0
 17 22  2  0
 21 22  1  0
 19 23  2  0
 20 23  1  0
M  END
