mac-x0584-mac-x0417
     RDKit          3D

 31 36  0  0  0  0  0  0  0  0999 V2000
    2.2430   13.6100   -3.8580 O   0  0  0  0  0  0  0  0  0  0  0  0
    1.5230   12.6530   -4.4910 C   0  0  0  0  0  0  0  0  0  0  0  0
    1.6800   11.4660   -4.2540 O   0  0  0  0  0  0  0  0  0  0  0  0
    0.5190   13.1700   -5.5140 C   0  0  2  0  0  0  0  0  0  0  0  0
   -0.4430   14.2060   -4.8330 C   0  0  2  0  0  0  0  0  0  0  0  0
    0.0400   12.0040   -6.3540 C   0  0  0  0  0  0  0  0  0  0  0  0
   -0.2020   14.2480   -3.3020 C   0  0  2  0  0  0  0  0  0  0  0  0
   -1.9640   14.0160   -4.8940 C   0  0  0  0  0  0  0  0  0  0  0  0
    0.8300   11.6740   -7.3760 N   0  0  0  0  0  0  0  0  0  0  0  0
   -1.0930   11.1330   -6.3190 C   0  0  0  0  0  0  0  0  0  0  0  0
   -0.0920   12.8560   -2.7090 C   0  0  0  0  0  0  0  0  0  0  0  0
   -1.3780   14.8880   -2.7290 N   0  0  0  0  0  0  0  0  0  0  0  0
   -2.5110   14.7640   -3.6680 C   0  0  0  0  0  0  0  0  0  0  0  0
    0.2530   10.6160   -8.0320 O   0  0  0  0  0  0  0  0  0  0  0  0
   -0.8920   10.2890   -7.4080 C   0  0  0  0  0  0  0  0  0  0  0  0
   -2.2490   10.9220   -5.5450 C   0  0  0  0  0  0  0  0  0  0  0  0
    1.2640   12.1590   -2.5980 C   0  0  0  0  0  0  0  0  0  0  0  0
   -0.5680   11.5700   -3.4410 C   0  0  0  0  0  0  0  0  0  0  0  0
   -1.5730   14.8320   -1.3440 C   0  0  0  0  0  0  0  0  0  0  0  0
   -1.7300    9.2580   -7.7990 C   0  0  0  0  0  0  0  0  0  0  0  0
   -3.1170    9.8820   -5.9120 C   0  0  0  0  0  0  0  0  0  0  0  0
    0.4280   10.8760   -2.5020 C   0  0  0  0  0  0  0  0  0  0  0  0
   -0.4850   14.6020   -0.5300 N   0  0  0  0  0  0  0  0  0  0  0  0
   -2.7340   15.0040   -0.6990 C   0  0  0  0  0  0  0  0  0  0  0  0
   -2.8640    9.0660   -7.0170 C   0  0  0  0  0  0  0  0  0  0  0  0
   -0.5810   14.5330    0.8360 C   0  0  0  0  0  0  0  0  0  0  0  0
   -2.7620   14.9410    0.7860 C   0  0  0  0  0  0  0  0  0  0  0  0
   -4.0860   15.2770   -1.0490 C   0  0  0  0  0  0  0  0  0  0  0  0
   -1.6510   14.6820    1.5390 N   0  0  0  0  0  0  0  0  0  0  0  0
   -3.9580   15.1750    1.2480 N   0  0  0  0  0  0  0  0  0  0  0  0
   -4.7380   15.3660    0.1150 C   0  0  0  0  0  0  0  0  0  0  0  0
  1  2  1  0
  2  3  2  0
  4  2  1  1
  4  5  1  0
  4  6  1  0
  5  7  1  0
  5  8  1  1
  6  9  2  0
  6 10  1  0
  7 11  1  1
  7 12  1  0
  8 13  1  0
 12 13  1  0
  9 14  1  0
 10 15  2  0
 14 15  1  0
 10 16  1  0
 11 17  1  0
 11 18  1  0
 12 19  1  0
 15 20  1  0
 16 21  2  0
 17 22  1  0
 18 22  1  0
 19 23  1  0
 19 24  2  0
 20 25  2  0
 21 25  1  0
 23 26  1  0
 24 27  1  0
 24 28  1  0
 26 29  2  0
 27 29  1  0
 27 30  2  0
 28 31  2  0
 30 31  1  0
M  END
