mac-x0453-mac-x0180
     RDKit          3D

 13 13  0  0  0  0  0  0  0  0999 V2000
   -6.2700   12.7340    1.6990 N   0  0  0  0  0  0  0  0  0  0  0  0
   -6.3560   14.0420    1.0810 C   0  0  2  0  0  0  0  0  0  0  0  0
   -4.9670   14.7530    1.2090 C   0  0  0  0  0  0  0  0  0  0  0  0
   -7.5600   14.7230    1.7360 C   0  0  0  0  0  0  0  0  0  0  0  0
   -6.6900   13.8530   -0.2870 O   0  0  0  0  0  0  0  0  0  0  0  0
   -4.1640   14.8410   -0.0710 C   0  0  0  0  0  0  0  0  0  0  0  0
   -2.7960   14.6620   -0.2860 C   0  0  0  0  0  0  0  0  0  0  0  0
   -4.7750   15.1350   -1.2560 N   0  0  0  0  0  0  0  0  0  0  0  0
   -2.5740   14.8590   -1.6510 N   0  0  0  0  0  0  0  0  0  0  0  0
   -3.8240   15.1400   -2.1640 C   0  0  0  0  0  0  0  0  0  0  0  0
   -1.4010   14.8190   -2.4590 C   0  0  0  0  0  0  0  0  0  0  0  0
   -1.4740   14.7450   -3.6820 O   0  0  0  0  0  0  0  0  0  0  0  0
   -0.2300   14.8910   -1.7820 O   0  0  0  0  0  0  0  0  0  0  0  0
  1  2  1  0
  2  3  1  0
  2  4  1  1
  2  5  1  0
  3  6  1  0
  6  7  2  0
  6  8  1  0
  7  9  1  0
  8 10  2  0
  9 10  1  0
  9 11  1  0
 11 12  2  0
 11 13  1  0
M  END
