mac-x0138-diamond-x0592_0_A
     RDKit          3D

 22 24  0  0  0  0  0  0  0  0999 V2000
   -0.2770   14.7090   -3.2790 C   0  0  0  0  0  0  0  0  0  0  0  0
   -1.3480   14.8260   -2.3380 N   0  0  0  0  0  0  0  0  0  0  0  0
   -2.6510   15.0880   -2.6640 C   0  0  0  0  0  0  0  0  0  0  0  0
   -1.2560   14.6980   -0.9650 C   0  0  0  0  0  0  0  0  0  0  0  0
   -3.3950   15.1430   -1.5980 N   0  0  0  0  0  0  0  0  0  0  0  0
   -2.5230   14.8960   -0.5440 C   0  0  0  0  0  0  0  0  0  0  0  0
   -0.2160   14.4390   -0.1450 N   0  0  0  0  0  0  0  0  0  0  0  0
   -2.7310   14.8200    0.8170 C   0  0  0  0  0  0  0  0  0  0  0  0
   -0.6150   14.4000    1.1670 C   0  0  0  0  0  0  0  0  0  0  0  0
   -3.9790   14.9990    1.0460 N   0  0  0  0  0  0  0  0  0  0  0  0
    0.2400   14.1440    2.1730 N   0  0  0  0  0  0  0  0  0  0  0  0
   -1.7930   14.5800    1.6720 N   0  0  0  0  0  0  0  0  0  0  0  0
   -4.5650   14.6170   -0.0800 C   0  0  0  0  0  0  0  0  0  0  0  0
   -3.8870   14.1390   -0.9910 O   0  0  0  0  0  0  0  0  0  0  0  0
   -5.8930   14.7460   -0.1830 C   0  0  0  0  0  0  0  0  0  0  0  0
   -6.6960   15.1500   -1.2560 C   0  0  0  0  0  0  0  0  0  0  0  0
   -6.6970   14.4830    0.8370 C   0  0  0  0  0  0  0  0  0  0  0  0
   -7.9810   15.1350   -0.8980 N   0  0  0  0  0  0  0  0  0  0  0  0
   -7.9150   14.7210    0.3960 N   0  0  0  0  0  0  0  0  0  0  0  0
   -9.0460   14.5490    1.2490 C   0  0  0  0  0  0  0  0  0  0  0  0
   -8.5170   14.1440    2.6310 C   0  0  0  0  0  0  0  0  0  0  0  0
   -7.5220   15.0580    3.1230 O   0  0  0  0  0  0  0  0  0  0  0  0
  1  2  1  0
  2  3  1  0
  2  4  1  0
  3  5  2  0
  4  6  2  0
  5  6  1  0
  4  7  1  0
  6  8  1  0
  7  9  2  0
  8 10  1  0
  9 11  1  0
  8 12  2  0
  9 12  1  0
 10 13  1  0
 13 14  2  0
 13 15  1  0
 15 16  1  0
 15 17  2  0
 16 18  2  0
 17 19  1  0
 18 19  1  0
 19 20  1  0
 20 21  1  0
 21 22  1  0
M  END
