mac-x0587-mac-x0137
     RDKit          3D

 26 28  0  0  0  0  0  0  0  0999 V2000
    0.1620   16.5370   -4.1420 C   0  0  0  0  0  0  0  0  0  0  0  0
   -0.6760   15.2930   -3.8380 C   0  0  2  0  0  0  0  0  0  0  0  0
   -0.5670   14.0340   -5.1970 S   0  0  0  0  0  0  0  0  0  0  0  0
   -2.1470   15.6490   -3.4790 C   0  0  0  0  0  0  0  0  0  0  0  0
    1.1270   13.3500   -5.1490 C   0  0  0  0  0  0  0  0  0  0  0  0
   -2.9580   15.8370   -4.3990 O   0  0  0  0  0  0  0  0  0  0  0  0
   -2.5320   15.7440   -2.1470 N   0  0  0  0  0  0  0  0  0  0  0  0
    1.4010   12.3810   -4.0270 C   0  0  0  0  0  0  0  0  0  0  0  0
   -3.7850   15.6960   -1.5440 C   0  0  0  0  0  0  0  0  0  0  0  0
   -1.6050   15.3340   -1.1070 C   0  0  1  0  0  0  0  0  0  0  0  0
    0.8450   11.3080   -3.9060 O   0  0  0  0  0  0  0  0  0  0  0  0
    2.3380   12.7860   -3.1420 O   0  0  0  0  0  0  0  0  0  0  0  0
   -0.3830   16.0320   -1.1710 O   0  0  0  0  0  0  0  0  0  0  0  0
   -3.6310   15.7060   -0.1990 C   0  0  0  0  0  0  0  0  0  0  0  0
   -2.2820   15.7570    0.1180 N   0  0  0  0  0  0  0  0  0  0  0  0
   -1.4330   13.7970   -0.7710 C   0  0  1  0  0  0  0  0  0  0  0  0
   -1.4450   12.8160   -1.8530 N   0  0  0  0  0  0  0  0  0  0  0  0
   -0.3420   13.5900    0.1840 N   0  0  0  0  0  0  0  0  0  0  0  0
   -1.8210   15.1390    1.3250 N   0  0  0  0  0  0  0  0  0  0  0  0
   -2.2800   13.1940   -2.9980 C   0  0  0  0  0  0  0  0  0  0  0  0
   -0.1760   12.2510   -2.2370 C   0  0  0  0  0  0  0  0  0  0  0  0
   -0.4280   14.6200    1.2130 C   0  0  0  0  0  0  0  0  0  0  0  0
   -2.5170   12.0900   -4.0370 C   0  0  1  0  0  0  0  0  0  0  0  0
   -0.4920   10.9720   -3.0070 C   0  0  0  0  0  0  0  0  0  0  0  0
   -2.9220   12.6740   -5.1930 F   0  0  0  0  0  0  0  0  0  0  0  0
   -1.2650   11.2570   -4.3000 C   0  0  0  0  0  0  0  0  0  0  0  0
  2  1  1  6
  2  3  1  0
  2  4  1  0
  3  5  1  0
  4  6  2  0
  4  7  1  0
  5  8  1  0
  7  9  1  0
  7 10  1  0
  8 11  2  0
  8 12  1  0
 10 13  1  6
  9 14  2  0
 10 15  1  0
 14 15  1  0
 10 16  1  0
 16 17  1  6
 16 18  1  0
 15 19  1  0
 17 20  1  0
 17 21  1  0
 18 22  1  0
 19 22  1  0
 20 23  1  0
 21 24  1  0
 23 25  1  6
 23 26  1  0
 24 26  1  0
M  END
