mac-x0402-mac-x0319
     RDKit          3D

 23 25  0  0  0  0  0  0  0  0999 V2000
   -2.4720   15.2220   -4.0810 Cl  0  0  0  0  0  0  0  0  0  0  0  0
   -3.4760   15.1510   -2.6740 C   0  0  0  0  0  0  0  0  0  0  0  0
   -4.8130   14.9320   -2.9300 C   0  0  0  0  0  0  0  0  0  0  0  0
   -2.9630   15.3070   -1.3770 C   0  0  0  0  0  0  0  0  0  0  0  0
   -1.4820   15.5570   -1.2170 C   0  0  0  0  0  0  0  0  0  0  0  0
   -3.9360   15.2110   -0.3080 C   0  0  0  0  0  0  0  0  0  0  0  0
   -5.7230   14.8510   -1.8990 C   0  0  0  0  0  0  0  0  0  0  0  0
   -5.2920   14.9880   -0.5820 C   0  0  0  0  0  0  0  0  0  0  0  0
   -3.8070   15.3210    1.4250 S   0  0  0  0  0  0  0  0  0  0  0  0
   -0.6220   15.3340   -2.4780 C   0  0  0  0  0  0  0  0  0  0  0  0
   -5.5030   15.0810    1.5850 C   0  0  0  0  0  0  0  0  0  0  0  0
   -6.1470   14.9150    0.4820 N   0  0  0  0  0  0  0  0  0  0  0  0
   -0.1640   16.3570   -3.3440 C   0  0  0  0  0  0  0  0  0  0  0  0
   -0.2530   14.0290   -2.7710 C   0  0  0  0  0  0  0  0  0  0  0  0
   -6.1560   15.0750    2.7540 N   0  0  0  0  0  0  0  0  0  0  0  0
    0.5490   13.7010   -3.8520 C   0  0  0  0  0  0  0  0  0  0  0  0
    0.6430   16.0330   -4.4390 C   0  0  0  0  0  0  0  0  0  0  0  0
    0.8710   12.2460   -3.9890 C   0  0  0  0  0  0  0  0  0  0  0  0
    1.1080   17.0040   -5.2790 O   0  0  0  0  0  0  0  0  0  0  0  0
    1.0050   14.7090   -4.7010 C   0  0  0  0  0  0  0  0  0  0  0  0
    0.7110   11.6250   -2.6100 C   0  0  0  0  0  0  0  0  0  0  0  0
    0.4680   10.2950   -2.6130 O   0  0  0  0  0  0  0  0  0  0  0  0
    0.7640   12.2060   -1.5320 O   0  0  0  0  0  0  0  0  0  0  0  0
  1  2  1  0
  2  3  2  0
  2  4  1  0
  4  5  1  0
  4  6  2  0
  3  7  1  0
  6  8  1  0
  7  8  2  0
  6  9  1  0
  5 10  1  0
  9 11  1  0
  8 12  1  0
 11 12  2  0
 10 13  2  0
 10 14  1  0
 11 15  1  0
 14 16  2  0
 13 17  1  0
 16 18  1  0
 17 19  1  0
 16 20  1  0
 17 20  2  0
 18 21  1  0
 21 22  1  0
 21 23  2  0
M  END
