mac-x0341-diamond-x0104_0_A
     RDKit          3D

 21 23  0  0  0  0  0  0  0  0999 V2000
   -6.9190   14.4110    2.3600 N   0  0  0  0  0  0  0  0  0  0  0  0
   -8.0160   15.0370    2.9530 C   0  0  0  0  0  0  0  0  0  0  0  0
   -7.9990   14.9780    4.3240 N   0  0  0  0  0  0  0  0  0  0  0  0
   -6.0910   14.7110    1.2770 C   0  0  0  0  0  0  0  0  0  0  0  0
   -8.8600   15.5440    2.2200 O   0  0  0  0  0  0  0  0  0  0  0  0
   -6.5970   14.9000    0.0140 N   0  0  0  0  0  0  0  0  0  0  0  0
   -4.8160   14.7870    1.5140 N   0  0  0  0  0  0  0  0  0  0  0  0
   -5.8070   14.9010   -1.1220 C   0  0  0  0  0  0  0  0  0  0  0  0
   -3.9400   15.0610    0.4430 C   0  0  0  0  0  0  0  0  0  0  0  0
   -9.1040   15.0140    5.1680 C   0  0  0  0  0  0  0  0  0  0  0  0
   -6.3450   14.6820   -2.2520 N   0  0  0  0  0  0  0  0  0  0  0  0
   -4.3570   15.1370   -0.8930 C   0  0  0  0  0  0  0  0  0  0  0  0
   -2.5900   15.2570    0.7490 C   0  0  0  0  0  0  0  0  0  0  0  0
   -9.0850   15.1560    6.5450 C   0  0  0  0  0  0  0  0  0  0  0  0
  -10.6920   14.8840    4.5790 S   0  0  0  0  0  0  0  0  0  0  0  0
   -5.5210   14.6350   -3.4350 C   0  0  0  0  0  0  0  0  0  0  0  0
   -1.6630   15.5290   -0.2560 C   0  0  0  0  0  0  0  0  0  0  0  0
   -3.4210   15.4110   -1.8930 C   0  0  0  0  0  0  0  0  0  0  0  0
  -11.3730   15.0150    6.1440 C   0  0  0  0  0  0  0  0  0  0  0  0
  -10.4030   15.1570    7.1090 C   0  0  0  0  0  0  0  0  0  0  0  0
   -2.0810   15.6060   -1.5780 C   0  0  0  0  0  0  0  0  0  0  0  0
  1  2  1  0
  2  3  1  0
  1  4  1  0
  2  5  2  0
  4  6  1  0
  4  7  2  0
  6  8  1  0
  7  9  1  0
  3 10  1  0
  8 11  2  3
  8 12  1  0
  9 12  2  0
  9 13  1  0
 10 14  2  0
 10 15  1  0
 11 16  1  0
 13 17  2  0
 12 18  1  0
 15 19  1  0
 14 20  1  0
 19 20  2  0
 17 21  1  0
 18 21  2  0
M  END
