mac-x0148-diamond-x0104_0_A
     RDKit          3D

 35 40  0  0  0  0  0  0  0  0999 V2000
   -7.0320   14.4800    2.7570 N   0  0  0  0  0  0  0  0  0  0  0  0
   -8.1420   15.0990    3.2770 C   0  0  0  0  0  0  0  0  0  0  0  0
   -8.0370   15.0780    4.6470 N   0  0  0  0  0  0  0  0  0  0  0  0
   -6.6330   14.4650    1.4120 C   0  0  0  0  0  0  0  0  0  0  0  0
   -9.0620   15.5780    2.6230 O   0  0  0  0  0  0  0  0  0  0  0  0
   -5.3280   14.1190    1.0900 C   0  0  0  0  0  0  0  0  0  0  0  0
   -7.4820   14.7850    0.3610 C   0  0  0  0  0  0  0  0  0  0  0  0
   -4.8480   14.0810   -0.1770 N   0  0  0  0  0  0  0  0  0  0  0  0
   -7.0190   14.7610   -0.9510 C   0  0  0  0  0  0  0  0  0  0  0  0
   -9.1350   15.0820    5.4730 C   0  0  0  0  0  0  0  0  0  0  0  0
   -5.7110   14.4100   -1.1680 C   0  0  0  0  0  0  0  0  0  0  0  0
   -9.2830   15.1930    6.8320 C   0  0  0  0  0  0  0  0  0  0  0  0
  -10.6250   14.9150    4.6620 S   0  0  0  0  0  0  0  0  0  0  0  0
   -5.2990   14.4130   -2.4820 O   0  0  0  0  0  0  0  0  0  0  0  0
  -11.4980   14.9910    6.1340 C   0  0  0  0  0  0  0  0  0  0  0  0
  -10.6600   15.1410    7.2170 C   0  0  0  0  0  0  0  0  0  0  0  0
   -4.0200   14.9990   -2.5860 C   0  0  0  0  0  0  0  0  0  0  0  0
   -3.5110   15.1800   -1.2190 C   0  0  0  0  0  0  0  0  0  0  0  0
   -2.2260   14.7990   -0.7400 C   0  0  0  0  0  0  0  0  0  0  0  0
   -4.1360   15.7330   -0.1590 C   0  0  0  0  0  0  0  0  0  0  0  0
   -2.3330   15.1260    0.7140 C   0  0  0  0  0  0  0  0  0  0  0  0
   -1.0730   14.2930   -1.2110 C   0  0  0  0  0  0  0  0  0  0  0  0
   -3.4390   15.7140    1.0280 N   0  0  0  0  0  0  0  0  0  0  0  0
   -0.7320   13.8860   -2.5170 N   0  0  0  0  0  0  0  0  0  0  0  0
   -0.0780   14.1490   -0.2600 N   0  0  0  0  0  0  0  0  0  0  0  0
   -1.3660   14.8300    1.6010 N   0  0  0  0  0  0  0  0  0  0  0  0
   -0.9010   14.6520   -3.8050 C   0  0  2  0  0  0  0  0  0  0  0  0
    0.2140   12.7840   -2.5810 C   0  0  0  0  0  0  0  0  0  0  0  0
   -0.3140   14.3540    1.0770 C   0  0  0  0  0  0  0  0  0  0  0  0
   -2.2400   15.3780   -4.0070 C   0  0  0  0  0  0  0  0  0  0  0  0
   -0.8210   13.8100   -5.1110 C   0  0  2  0  0  0  0  0  0  0  0  0
   -0.2710   11.8190   -3.6350 C   0  0  0  0  0  0  0  0  0  0  0  0
   -2.2770   13.6180   -5.4880 C   0  0  0  0  0  0  0  0  0  0  0  0
   -2.9170   14.8430   -5.1630 O   0  0  0  0  0  0  0  0  0  0  0  0
   -0.1160   12.4500   -5.0060 C   0  0  0  0  0  0  0  0  0  0  0  0
  1  2  1  0
  2  3  1  0
  1  4  1  0
  2  5  2  0
  4  6  2  0
  4  7  1  0
  6  8  1  0
  7  9  2  0
  3 10  1  0
  8 11  2  0
  9 11  1  0
 10 12  2  0
 10 13  1  0
 11 14  1  0
 13 15  1  0
 12 16  1  0
 15 16  2  0
 14 17  1  0
 17 18  1  0
 18 19  1  0
 18 20  2  0
 19 21  1  0
 19 22  2  0
 20 23  1  0
 21 23  2  0
 22 24  1  0
 22 25  1  0
 21 26  1  0
 24 27  1  0
 24 28  1  0
 25 29  1  0
 26 29  2  0
 27 30  1  1
 27 31  1  0
 28 32  1  0
 31 33  1  1
 30 34  1  0
 33 34  1  0
 31 35  1  0
 32 35  1  0
M  END
