mac-x0587-diamond-x0438_0_A
     RDKit          3D

 24 25  0  0  0  0  0  0  0  0999 V2000
   -0.1240   15.9870   -4.0420 C   0  0  0  0  0  0  0  0  0  0  0  0
   -0.7770   14.7010   -3.5200 C   0  0  2  0  0  0  0  0  0  0  0  0
   -0.4450   13.4120   -4.8090 S   0  0  0  0  0  0  0  0  0  0  0  0
   -2.3090   14.8550   -3.2810 C   0  0  0  0  0  0  0  0  0  0  0  0
   -0.7240   11.8870   -3.8350 C   0  0  0  0  0  0  0  0  0  0  0  0
   -3.0580   15.2130   -4.1970 O   0  0  0  0  0  0  0  0  0  0  0  0
   -2.8430   14.5880   -1.9900 N   0  0  0  0  0  0  0  0  0  0  0  0
    0.4340   11.4860   -2.9370 C   0  0  0  0  0  0  0  0  0  0  0  0
   -4.1520   13.9690   -1.7530 C   0  0  0  0  0  0  0  0  0  0  0  0
   -2.3490   14.8760   -0.7210 C   0  0  0  0  0  0  0  0  0  0  0  0
    0.5540   10.3370   -2.5190 O   0  0  0  0  0  0  0  0  0  0  0  0
    1.3160   12.4650   -2.6190 O   0  0  0  0  0  0  0  0  0  0  0  0
   -1.1830   14.8670   -0.3500 O   0  0  0  0  0  0  0  0  0  0  0  0
   -4.6770   14.6450   -0.4690 C   0  0  2  0  0  0  0  0  0  0  0  0
   -3.4570   15.1870    0.0920 N   0  0  0  0  0  0  0  0  0  0  0  0
   -5.4330   13.8150    0.5420 N   0  0  0  0  0  0  0  0  0  0  0  0
   -5.7940   15.5620   -0.8630 C   0  0  0  0  0  0  0  0  0  0  0  0
   -6.9300   15.2980   -0.2810 N   0  0  0  0  0  0  0  0  0  0  0  0
   -6.6830   14.2710    0.5740 C   0  0  0  0  0  0  0  0  0  0  0  0
   -7.8020   13.7350    1.4550 C   0  0  0  0  0  0  0  0  0  0  0  0
   -8.8650   14.9390    2.2820 S   0  0  0  0  0  0  0  0  0  0  0  0
   -7.9850   15.4220    3.7540 C   0  0  0  0  0  0  0  0  0  0  0  0
  -10.0750   14.2790    2.7430 O   0  0  0  0  0  0  0  0  0  0  0  0
   -9.0270   16.1130    1.4430 O   0  0  0  0  0  0  0  0  0  0  0  0
  2  1  1  6
  2  3  1  0
  2  4  1  0
  3  5  1  0
  4  6  2  0
  4  7  1  0
  5  8  1  0
  7  9  1  0
  7 10  1  0
  8 11  2  0
  8 12  1  0
 10 13  2  0
 14  9  1  6
 10 15  1  0
 14 15  1  0
 14 16  1  0
 14 17  1  0
 17 18  2  0
 16 19  2  0
 18 19  1  0
 19 20  1  0
 21 20  1  0
 21 22  1  0
 21 23  2  0
 21 24  2  0
M  END
