mac-x0263-mac-x0132
     RDKit          3D

 15 16  0  0  0  0  0  0  0  0999 V2000
  -11.4100   14.3800    2.4210 O   0  0  0  0  0  0  0  0  0  0  0  0
  -10.7520   15.5010    2.7720 C   0  0  0  0  0  0  0  0  0  0  0  0
  -11.2040   16.2390    3.6300 O   0  0  0  0  0  0  0  0  0  0  0  0
   -9.4740   15.6990    1.9980 C   0  0  0  0  0  0  0  0  0  0  0  0
   -8.7500   14.3980    1.6660 C   0  0  0  0  0  0  0  0  0  0  0  0
   -7.5280   14.6250    0.8240 C   0  0  0  0  0  0  0  0  0  0  0  0
   -7.4810   14.6160   -0.4960 N   0  0  0  0  0  0  0  0  0  0  0  0
   -6.2750   14.8850    1.3320 N   0  0  0  0  0  0  0  0  0  0  0  0
   -5.8820   15.0200    2.6640 N   0  0  0  0  0  0  0  0  0  0  0  0
   -6.1610   14.8650   -0.8100 C   0  0  0  0  0  0  0  0  0  0  0  0
   -5.3950   15.0210    0.3280 C   0  0  0  0  0  0  0  0  0  0  0  0
   -5.5340   14.9740   -2.0530 C   0  0  0  0  0  0  0  0  0  0  0  0
   -4.0280   15.2640    0.3280 C   0  0  0  0  0  0  0  0  0  0  0  0
   -4.1600   15.2150   -2.0900 C   0  0  0  0  0  0  0  0  0  0  0  0
   -3.4250   15.3480   -0.9170 C   0  0  0  0  0  0  0  0  0  0  0  0
  1  2  1  0
  2  3  2  0
  2  4  1  0
  4  5  1  0
  5  6  1  0
  6  7  2  0
  6  8  1  0
  8  9  1  0
  7 10  1  0
  8 11  1  0
 10 11  2  0
 10 12  1  0
 11 13  1  0
 12 14  2  0
 13 15  2  0
 14 15  1  0
M  END
