mac-x0396-mac-x0204
     RDKit          3D

 21 22  0  0  0  0  0  0  0  0999 V2000
   -3.1160   14.8320    1.6130 N   0  0  0  0  0  0  0  0  0  0  0  0
   -3.5260   14.7620    0.3020 C   0  0  0  0  0  0  0  0  0  0  0  0
   -2.7000   14.6400   -0.6820 N   0  0  0  0  0  0  0  0  0  0  0  0
   -5.0070   14.7900    0.0270 C   0  0  0  0  0  0  0  0  0  0  0  0
   -1.2660   14.5580   -0.3470 C   0  0  0  0  0  0  0  0  0  0  0  0
   -5.5720   14.9890   -1.2260 C   0  0  0  0  0  0  0  0  0  0  0  0
   -5.8840   14.5950    1.0910 C   0  0  0  0  0  0  0  0  0  0  0  0
   -0.6190   13.4780   -1.1990 C   0  0  0  0  0  0  0  0  0  0  0  0
   -6.9160   14.9940   -1.4500 N   0  0  0  0  0  0  0  0  0  0  0  0
   -7.2570   14.5950    0.8940 C   0  0  0  0  0  0  0  0  0  0  0  0
   -0.0180   13.9630   -2.5360 C   0  0  0  0  0  0  0  0  0  0  0  0
   -7.7260   14.7980   -0.3850 C   0  0  0  0  0  0  0  0  0  0  0  0
    0.9800   13.0000   -2.8430 O   0  0  0  0  0  0  0  0  0  0  0  0
    0.6750   15.1940   -2.4260 O   0  0  0  0  0  0  0  0  0  0  0  0
   -1.0410   14.0100   -3.6530 C   0  0  0  0  0  0  0  0  0  0  0  0
   -1.4300   15.2100   -4.2810 C   0  0  0  0  0  0  0  0  0  0  0  0
   -1.6530   12.8430   -4.1120 C   0  0  0  0  0  0  0  0  0  0  0  0
   -2.3810   15.1870   -5.2960 C   0  0  0  0  0  0  0  0  0  0  0  0
   -2.5790   12.7940   -5.1010 N   0  0  0  0  0  0  0  0  0  0  0  0
   -2.7480   16.3610   -5.8890 O   0  0  0  0  0  0  0  0  0  0  0  0
   -2.9240   13.9670   -5.6700 C   0  0  0  0  0  0  0  0  0  0  0  0
  1  2  1  0
  2  3  2  3
  2  4  1  0
  3  5  1  0
  4  6  2  0
  4  7  1  0
  5  8  1  0
  6  9  1  0
  7 10  2  0
  8 11  1  0
  9 12  2  0
 10 12  1  0
 11 13  1  0
 11 14  1  0
 11 15  1  0
 15 16  2  0
 15 17  1  0
 16 18  1  0
 17 19  2  0
 18 20  1  0
 18 21  2  0
 19 21  1  0
M  END
