mac-x0387-mac-x0357
     RDKit          3D

 22 24  0  0  0  0  0  0  0  0999 V2000
   -3.9530   15.2070    1.7050 N   0  0  0  0  0  0  0  0  0  0  0  0
   -2.7180   14.9200    1.1250 C   0  0  0  0  0  0  0  0  0  0  0  0
   -1.7090   14.6410    1.9700 N   0  0  0  0  0  0  0  0  0  0  0  0
   -2.5810   14.9410   -0.2600 C   0  0  0  0  0  0  0  0  0  0  0  0
   -1.3130   14.6720   -0.7910 C   0  0  0  0  0  0  0  0  0  0  0  0
   -0.5020   14.3840    1.4460 C   0  0  0  0  0  0  0  0  0  0  0  0
   -3.6560   15.2240   -1.1320 C   0  0  0  0  0  0  0  0  0  0  0  0
   -0.2560   14.3910    0.0940 C   0  0  0  0  0  0  0  0  0  0  0  0
   -1.1490   14.7000   -2.1840 C   0  0  0  0  0  0  0  0  0  0  0  0
   -3.4820   15.2390   -2.5130 C   0  0  0  0  0  0  0  0  0  0  0  0
   -2.2280   14.9770   -3.0410 C   0  0  0  0  0  0  0  0  0  0  0  0
    0.1910   14.4230   -2.7530 C   0  0  0  0  0  0  0  0  0  0  0  0
    0.4260   12.9290   -2.6340 C   0  0  2  0  0  0  0  0  0  0  0  0
    1.7650   12.6870   -2.1950 O   0  0  0  0  0  0  0  0  0  0  0  0
    0.1710   12.3040   -3.9710 C   0  0  0  0  0  0  0  0  0  0  0  0
    1.1360   12.3170   -4.9870 C   0  0  0  0  0  0  0  0  0  0  0  0
   -1.0800   11.6950   -4.2040 C   0  0  0  0  0  0  0  0  0  0  0  0
    2.4870   12.9570   -4.7980 C   0  0  0  0  0  0  0  0  0  0  0  0
   -1.3810   11.1000   -5.4200 C   0  0  0  0  0  0  0  0  0  0  0  0
    0.8010   11.7010   -6.2000 C   0  0  0  0  0  0  0  0  0  0  0  0
    1.6500   11.6280   -7.2470 O   0  0  0  0  0  0  0  0  0  0  0  0
   -0.4300   11.1030   -6.4240 C   0  0  0  0  0  0  0  0  0  0  0  0
  1  2  1  0
  2  3  2  0
  2  4  1  0
  4  5  2  0
  3  6  1  0
  4  7  1  0
  5  8  1  0
  6  8  2  0
  5  9  1  0
  7 10  2  0
  9 11  2  0
 10 11  1  0
  9 12  1  0
 12 13  1  0
 13 14  1  6
 13 15  1  0
 15 16  2  0
 15 17  1  0
 16 18  1  0
 17 19  2  0
 16 20  1  0
 20 21  1  0
 19 22  1  0
 20 22  2  0
M  END
