mac-x0348-diamond-x0290_0_A
     RDKit          3D

 27 29  0  0  0  0  0  0  0  0999 V2000
    0.7460   18.4570   -5.6270 C   0  0  0  0  0  0  0  0  0  0  0  0
    0.0100   17.3510   -5.0760 N   0  0  0  0  0  0  0  0  0  0  0  0
    0.4850   16.5030   -4.1070 C   0  0  0  0  0  0  0  0  0  0  0  0
   -1.2590   16.9770   -5.4420 C   0  0  0  0  0  0  0  0  0  0  0  0
   -0.4940   15.5490   -3.8370 C   0  0  0  0  0  0  0  0  0  0  0  0
   -1.5830   15.8560   -4.6920 C   0  0  0  0  0  0  0  0  0  0  0  0
   -2.1540   17.5160   -6.3700 C   0  0  0  0  0  0  0  0  0  0  0  0
   -0.5360   14.3590   -2.8950 C   0  0  1  0  0  0  0  0  0  0  0  0
   -2.8260   15.2370   -4.8730 C   0  0  0  0  0  0  0  0  0  0  0  0
   -3.3870   16.8750   -6.5350 C   0  0  0  0  0  0  0  0  0  0  0  0
    0.5760   13.3670   -3.2310 C   0  0  0  0  0  0  0  0  0  0  0  0
   -3.7210   15.7510   -5.8010 C   0  0  0  0  0  0  0  0  0  0  0  0
   -0.9890   14.5190   -1.3680 C   0  0  0  0  0  0  0  0  0  0  0  0
    0.5720   12.2400   -2.2760 C   0  0  0  0  0  0  0  0  0  0  0  0
   -0.0170   14.6370   -0.3560 C   0  0  0  0  0  0  0  0  0  0  0  0
   -2.3470   14.5260   -0.8840 C   0  0  0  0  0  0  0  0  0  0  0  0
    0.5340   12.3970   -1.0830 O   0  0  0  0  0  0  0  0  0  0  0  0
    0.5940   11.0160   -2.8260 O   0  0  0  0  0  0  0  0  0  0  0  0
   -0.4000   14.7350    0.9840 C   0  0  0  0  0  0  0  0  0  0  0  0
   -2.6540   14.6290    0.5020 C   0  0  0  0  0  0  0  0  0  0  0  0
   -3.9420   14.6330    1.0940 N   0  0  0  0  0  0  0  0  0  0  0  0
   -1.6770   14.7270    1.4380 N   0  0  0  0  0  0  0  0  0  0  0  0
   -5.2130   14.4430    0.6380 C   0  0  0  0  0  0  0  0  0  0  0  0
   -5.4070   14.5510   -0.5780 O   0  0  0  0  0  0  0  0  0  0  0  0
   -6.3980   14.0890    1.5430 C   0  0  0  0  0  0  0  0  0  0  0  0
   -7.6300   13.8340    0.7710 N   0  0  0  0  0  0  0  0  0  0  0  0
   -8.5690   14.9460    0.8010 C   0  0  0  0  0  0  0  0  0  0  0  0
  1  2  1  0
  2  3  1  0
  2  4  1  0
  3  5  2  0
  4  6  2  0
  5  6  1  0
  4  7  1  0
  5  8  1  0
  6  9  1  0
  7 10  2  0
  8 11  1  1
  9 12  2  0
 10 12  1  0
  8 13  1  0
 11 14  1  0
 13 15  2  0
 13 16  1  0
 14 17  2  0
 14 18  1  0
 15 19  1  0
 16 20  2  0
 20 21  1  0
 19 22  2  0
 20 22  1  0
 21 23  1  0
 23 24  2  0
 23 25  1  0
 25 26  1  0
 26 27  1  0
M  END
