mac-x0404-mac-x0433
     RDKit          3D

 26 28  0  0  0  0  0  0  0  0999 V2000
    1.1560   13.0500   -2.1200 O   0  0  0  0  0  0  0  0  0  0  0  0
    1.0600   12.1590   -3.1410 C   0  0  0  0  0  0  0  0  0  0  0  0
    0.4800   11.0890   -2.9990 O   0  0  0  0  0  0  0  0  0  0  0  0
    1.7350   12.5930   -4.4560 C   0  0  0  0  0  0  0  0  0  0  0  0
    1.5640   13.9930   -4.7110 O   0  0  0  0  0  0  0  0  0  0  0  0
    0.2510   14.3650   -4.7720 C   0  0  0  0  0  0  0  0  0  0  0  0
   -0.0690   15.7080   -4.9890 C   0  0  0  0  0  0  0  0  0  0  0  0
   -0.7220   13.3930   -4.6100 C   0  0  0  0  0  0  0  0  0  0  0  0
   -1.4150   16.1050   -5.0310 C   0  0  0  0  0  0  0  0  0  0  0  0
   -2.0470   13.7630   -4.6450 C   0  0  0  0  0  0  0  0  0  0  0  0
    0.9460   16.6430   -5.1610 C   0  0  0  0  0  0  0  0  0  0  0  0
   -2.4150   15.0910   -4.8390 C   0  0  0  0  0  0  0  0  0  0  0  0
   -1.6610   17.4880   -5.2550 C   0  0  0  0  0  0  0  0  0  0  0  0
    0.6880   17.9900   -5.3790 C   0  0  0  0  0  0  0  0  0  0  0  0
   -3.8740   15.4230   -4.8190 C   0  0  0  0  0  0  0  0  0  0  0  0
   -0.6280   18.4130   -5.4270 C   0  0  0  0  0  0  0  0  0  0  0  0
   -4.9160   14.3820   -4.3300 C   0  0  0  0  0  0  0  0  0  0  0  0
   -5.9430   14.9370   -3.4200 N   0  0  0  0  0  0  0  0  0  0  0  0
   -5.7040   14.9910   -2.0430 C   0  0  0  0  0  0  0  0  0  0  0  0
   -4.4860   15.2690   -1.5490 N   0  0  0  0  0  0  0  0  0  0  0  0
   -6.7750   14.7350   -1.2750 N   0  0  0  0  0  0  0  0  0  0  0  0
   -4.3410   15.2790   -0.2060 C   0  0  0  0  0  0  0  0  0  0  0  0
   -6.6060   14.7520    0.0620 C   0  0  0  0  0  0  0  0  0  0  0  0
   -2.9870   15.5830    0.3520 C   0  0  0  0  0  0  0  0  0  0  0  0
   -7.8060   14.4650    0.9180 C   0  0  0  0  0  0  0  0  0  0  0  0
   -5.3890   15.0200    0.6500 C   0  0  0  0  0  0  0  0  0  0  0  0
  1  2  1  0
  2  3  2  0
  2  4  1  0
  4  5  1  0
  5  6  1  0
  6  7  2  0
  6  8  1  0
  7  9  1  0
  8 10  2  0
  7 11  1  0
  9 12  2  0
 10 12  1  0
  9 13  1  0
 11 14  2  0
 12 15  1  0
 13 16  2  0
 14 16  1  0
 15 17  1  0
 17 18  1  0
 18 19  1  0
 19 20  2  0
 19 21  1  0
 20 22  1  0
 21 23  2  0
 22 24  1  0
 23 25  1  0
 22 26  2  0
 23 26  1  0
M  END
