mac-x0226-mac-x0255
     RDKit          3D

 24 27  0  0  0  0  0  0  0  0999 V2000
    1.2360   13.5380   -3.3180 O   0  0  0  0  0  0  0  0  0  0  0  0
    0.5960   12.3890   -3.5120 C   0  0  0  0  0  0  0  0  0  0  0  0
    0.0450   12.0290   -2.5040 N   0  0  0  0  0  0  0  0  0  0  0  0
    0.7660   12.0010   -4.8060 C   0  0  0  0  0  0  0  0  0  0  0  0
    0.3850   13.2600   -1.8480 C   0  0  0  0  0  0  0  0  0  0  0  0
    1.8190   12.4570   -5.5840 C   0  0  0  0  0  0  0  0  0  0  0  0
    0.0160   11.1910   -5.5890 C   0  0  0  0  0  0  0  0  0  0  0  0
    1.7570   11.9820   -6.7930 N   0  0  0  0  0  0  0  0  0  0  0  0
    0.6470   11.2160   -6.7960 N   0  0  0  0  0  0  0  0  0  0  0  0
    0.0370   14.3860   -2.8720 C   0  0  0  0  0  0  0  0  0  0  0  0
    0.2860   10.5850   -7.9710 C   0  0  0  0  0  0  0  0  0  0  0  0
    0.7980   15.4380   -3.4140 C   0  0  0  0  0  0  0  0  0  0  0  0
   -1.5500   14.4570   -3.5230 S   0  0  0  0  0  0  0  0  0  0  0  0
   -0.8930    9.8430   -8.0190 C   0  0  0  0  0  0  0  0  0  0  0  0
    1.0990   10.7130   -9.0880 C   0  0  0  0  0  0  0  0  0  0  0  0
    0.0620   16.3000   -4.3200 C   0  0  0  0  0  0  0  0  0  0  0  0
   -1.2580   15.8640   -4.4640 C   0  0  0  0  0  0  0  0  0  0  0  0
   -1.2560    9.2260   -9.2080 C   0  0  0  0  0  0  0  0  0  0  0  0
    0.7330   10.0960  -10.2730 C   0  0  0  0  0  0  0  0  0  0  0  0
    0.4460   17.4620   -5.0420 C   0  0  0  0  0  0  0  0  0  0  0  0
   -2.1910   16.5400   -5.2850 C   0  0  0  0  0  0  0  0  0  0  0  0
   -0.4430    9.3530  -10.3340 C   0  0  0  0  0  0  0  0  0  0  0  0
   -0.4750   18.1390   -5.8540 C   0  0  0  0  0  0  0  0  0  0  0  0
   -1.7790   17.6820   -5.9710 C   0  0  0  0  0  0  0  0  0  0  0  0
  1  2  1  0
  2  3  2  3
  2  4  1  0
  3  5  1  0
  4  6  1  0
  4  7  2  0
  6  8  2  0
  7  9  1  0
  8  9  1  0
  5 10  1  0
  9 11  1  0
 10 12  2  0
 10 13  1  0
 11 14  2  0
 11 15  1  0
 12 16  1  0
 13 17  1  0
 16 17  2  0
 14 18  1  0
 15 19  2  0
 16 20  1  0
 17 21  1  0
 18 22  2  0
 19 22  1  0
 20 23  2  0
 21 24  2  0
 23 24  1  0
M  END
