mac-x0303-diamond-x0371_0_A
     RDKit          3D

 19 21  0  0  0  0  0  0  0  0999 V2000
   -7.7180   13.4370    3.2250 N   0  0  0  0  0  0  0  0  0  0  0  0
   -8.5830   14.2080    2.1650 S   0  0  0  0  0  0  0  0  0  0  0  0
   -8.8400   15.5090    3.3270 C   0  0  0  0  0  0  0  0  0  0  0  0
   -9.5620   14.8730    1.3350 O   0  0  0  0  0  0  0  0  0  0  0  0
   -7.2430   14.5520    1.0310 C   0  0  0  0  0  0  0  0  0  0  0  0
   -9.2980   16.5780    2.8620 O   0  0  0  0  0  0  0  0  0  0  0  0
   -7.2850   14.8480   -0.2810 N   0  0  0  0  0  0  0  0  0  0  0  0
   -5.9420   14.5480    1.3900 N   0  0  0  0  0  0  0  0  0  0  0  0
   -8.6150   15.4120    4.7770 C   0  0  0  0  0  0  0  0  0  0  0  0
   -5.9980   15.0130   -0.7110 C   0  0  0  0  0  0  0  0  0  0  0  0
   -5.1580   14.8220    0.3440 C   0  0  0  0  0  0  0  0  0  0  0  0
   -8.0590   14.3540    5.3570 O   0  0  0  0  0  0  0  0  0  0  0  0
   -8.9040   16.3100    5.7820 C   0  0  0  0  0  0  0  0  0  0  0  0
   -5.5040   15.3140   -1.9500 C   0  0  0  0  0  0  0  0  0  0  0  0
   -3.8100   14.9270    0.1740 C   0  0  0  0  0  0  0  0  0  0  0  0
   -8.4930   15.7410    6.9910 C   0  0  0  0  0  0  0  0  0  0  0  0
   -7.9710   14.5170    6.6540 C   0  0  0  0  0  0  0  0  0  0  0  0
   -4.1270   15.4210   -2.1370 C   0  0  0  0  0  0  0  0  0  0  0  0
   -3.2750   15.2260   -1.0800 C   0  0  0  0  0  0  0  0  0  0  0  0
  1  2  1  0
  2  3  1  0
  2  4  2  0
  2  5  1  0
  3  6  2  0
  5  7  1  0
  5  8  2  0
  3  9  1  0
  7 10  1  0
  8 11  1  0
 10 11  2  0
  9 12  1  0
  9 13  2  0
 10 14  1  0
 11 15  1  0
 13 16  1  0
 12 17  1  0
 16 17  2  0
 14 18  2  0
 15 19  2  0
 18 19  1  0
M  END
