mac-x0417-diamond-x0742_0_A
     RDKit          3D

 31 35  0  0  0  0  0  0  0  0999 V2000
    2.3900   12.2600   -3.4850 O   0  0  0  0  0  0  0  0  0  0  0  0
    0.9980   12.3940   -3.5150 C   0  0  0  0  0  0  0  0  0  0  0  0
    0.4970   11.1150   -3.1280 O   0  0  0  0  0  0  0  0  0  0  0  0
    0.4720   12.7850   -4.9170 C   0  0  0  0  0  0  0  0  0  0  0  0
    0.6180   13.4170   -2.4590 C   0  0  0  0  0  0  0  0  0  0  0  0
   -0.8700   13.5030   -2.1590 C   0  0  0  0  0  0  0  0  0  0  0  0
    0.3270   11.7200   -5.9410 C   0  0  0  0  0  0  0  0  0  0  0  0
    1.2990   11.5650   -6.8460 N   0  0  0  0  0  0  0  0  0  0  0  0
   -0.7200   10.7810   -6.1410 C   0  0  0  0  0  0  0  0  0  0  0  0
   -1.1310   13.9010   -0.7510 C   0  0  0  0  0  0  0  0  0  0  0  0
    0.8980   10.5280   -7.6700 O   0  0  0  0  0  0  0  0  0  0  0  0
   -0.3040   10.0570   -7.2480 C   0  0  0  0  0  0  0  0  0  0  0  0
   -1.9480   10.4530   -5.5410 C   0  0  0  0  0  0  0  0  0  0  0  0
   -0.0470   14.0180    0.1130 C   0  0  0  0  0  0  0  0  0  0  0  0
   -2.4210   14.1640   -0.2560 C   0  0  0  0  0  0  0  0  0  0  0  0
   -1.0230    9.0110   -7.8220 C   0  0  0  0  0  0  0  0  0  0  0  0
   -2.7000    9.4000   -6.0920 C   0  0  0  0  0  0  0  0  0  0  0  0
   -3.7000   14.0740   -1.0700 C   0  0  1  0  0  0  0  0  0  0  0  0
   -0.2650   14.3790    1.4130 C   0  0  0  0  0  0  0  0  0  0  0  0
   -2.5080   14.5300    1.0810 C   0  0  0  0  0  0  0  0  0  0  0  0
   -2.2440    8.6950   -7.2120 C   0  0  0  0  0  0  0  0  0  0  0  0
   -4.9680   13.6470   -0.2380 C   0  0  1  0  0  0  0  0  0  0  0  0
   -4.1060   15.4100   -1.7130 C   0  0  0  0  0  0  0  0  0  0  0  0
   -1.4660   14.6360    1.9060 N   0  0  0  0  0  0  0  0  0  0  0  0
   -3.8390   14.8360    1.6630 C   0  0  0  0  0  0  0  0  0  0  0  0
   -5.3950   12.2150   -0.6160 C   0  0  0  0  0  0  0  0  0  0  0  0
   -4.7900   13.7190    1.2880 C   0  0  0  0  0  0  0  0  0  0  0  0
   -6.0660   14.6550   -0.6680 C   0  0  0  0  0  0  0  0  0  0  0  0
   -5.5850   15.2210   -1.9850 C   0  0  0  0  0  0  0  0  0  0  0  0
   -4.9340   11.6010   -1.5800 O   0  0  0  0  0  0  0  0  0  0  0  0
   -6.4420   11.5690    0.2620 C   0  0  0  0  0  0  0  0  0  0  0  0
  2  1  1  0
  2  3  1  0
  2  4  1  0
  2  5  1  0
  5  6  1  0
  4  7  1  0
  7  8  2  0
  7  9  1  0
  6 10  1  0
  8 11  1  0
  9 12  2  0
 11 12  1  0
  9 13  1  0
 10 14  2  0
 10 15  1  0
 12 16  1  0
 13 17  2  0
 15 18  1  0
 14 19  1  0
 15 20  2  0
 16 21  2  0
 17 21  1  0
 18 22  1  0
 18 23  1  1
 19 24  2  0
 20 24  1  0
 20 25  1  0
 22 26  1  1
 22 27  1  0
 25 27  1  0
 22 28  1  0
 23 29  1  0
 28 29  1  0
 26 30  2  0
 26 31  1  0
M  END
