mac-x0437-diamond-x0711_0_A
     RDKit          3D

 27 29  0  0  0  0  0  0  0  0999 V2000
    0.3920   13.2040   -2.3880 N   0  0  0  0  0  0  0  0  0  0  0  0
    0.9520   12.2650   -3.2320 C   0  0  0  0  0  0  0  0  0  0  0  0
    0.9320   11.0720   -2.9560 O   0  0  0  0  0  0  0  0  0  0  0  0
   -0.5640   14.1660   -3.0890 S   0  0  2  0  0  0  0  0  0  0  0  0
    1.5530   12.8150   -4.5110 C   0  0  0  0  0  0  0  0  0  0  0  0
   -1.2910   15.0010   -1.8390 N   0  0  0  0  0  0  0  0  0  0  0  0
   -1.8350   13.3020   -3.9560 C   0  0  0  0  0  0  0  0  0  0  0  0
   -0.1110   15.2530   -3.9300 O   0  0  0  0  0  0  0  0  0  0  0  0
    0.4700   13.0200   -5.5600 C   0  0  0  0  0  0  0  0  0  0  0  0
   -2.6210   14.9180   -1.3880 C   0  0  0  0  0  0  0  0  0  0  0  0
   -0.3940   11.8600   -5.7210 N   0  0  0  0  0  0  0  0  0  0  0  0
   -3.7680   15.1610   -2.1630 C   0  0  0  0  0  0  0  0  0  0  0  0
   -2.7900   14.5740   -0.0440 C   0  0  0  0  0  0  0  0  0  0  0  0
   -1.5130   11.5380   -4.9970 C   0  0  0  0  0  0  0  0  0  0  0  0
   -0.2100   10.8860   -6.6540 C   0  0  0  0  0  0  0  0  0  0  0  0
   -5.0490   15.0600   -1.5910 C   0  0  0  0  0  0  0  0  0  0  0  0
   -4.0540   14.4730    0.5270 C   0  0  0  0  0  0  0  0  0  0  0  0
   -2.0570   10.4190   -5.4040 N   0  0  0  0  0  0  0  0  0  0  0  0
   -1.2590    9.9970   -6.4330 C   0  0  0  0  0  0  0  0  0  0  0  0
    0.7480   10.7020   -7.6400 C   0  0  0  0  0  0  0  0  0  0  0  0
   -5.1900   14.7140   -0.2370 C   0  0  0  0  0  0  0  0  0  0  0  0
   -6.5500   14.6120    0.3610 C   0  0  0  0  0  0  0  0  0  0  0  0
   -1.3640    8.8560   -7.2350 C   0  0  0  0  0  0  0  0  0  0  0  0
    0.6330    9.5600   -8.4330 C   0  0  0  0  0  0  0  0  0  0  0  0
   -6.6710   14.6040    1.7280 N   0  0  0  0  0  0  0  0  0  0  0  0
   -7.5530   14.5420   -0.3430 O   0  0  0  0  0  0  0  0  0  0  0  0
   -0.4080    8.6480   -8.2340 C   0  0  0  0  0  0  0  0  0  0  0  0
  1  2  1  0
  2  3  2  0
  1  4  2  0
  2  5  1  0
  4  6  1  0
  4  7  1  6
  4  8  2  0
  5  9  1  0
  6 10  1  0
  9 11  1  0
 10 12  2  0
 10 13  1  0
 11 14  1  0
 11 15  1  0
 12 16  1  0
 13 17  2  0
 14 18  2  0
 15 19  2  0
 18 19  1  0
 15 20  1  0
 16 21  2  0
 17 21  1  0
 21 22  1  0
 19 23  1  0
 20 24  2  0
 22 25  1  0
 22 26  2  0
 23 27  2  0
 24 27  1  0
M  END
