mac-x0415-diamond-x0895_0_A
     RDKit          3D

 23 25  0  0  0  0  0  0  0  0999 V2000
    0.0140   10.9970   -3.1180 O   0  0  0  0  0  0  0  0  0  0  0  0
    0.7520   12.1250   -3.1560 C   0  0  0  0  0  0  0  0  0  0  0  0
    1.2190   12.6130   -2.1350 O   0  0  0  0  0  0  0  0  0  0  0  0
    0.9450   12.7400   -4.5350 C   0  0  0  0  0  0  0  0  0  0  0  0
    0.7020   14.1920   -4.5230 C   0  0  0  0  0  0  0  0  0  0  0  0
    1.7630   15.1840   -4.4220 C   0  0  0  0  0  0  0  0  0  0  0  0
   -0.3540   14.9960   -4.5930 C   0  0  0  0  0  0  0  0  0  0  0  0
    1.4480   16.4380   -4.4250 N   0  0  0  0  0  0  0  0  0  0  0  0
    0.0180   16.4240   -4.4540 C   0  0  1  0  0  0  0  0  0  0  0  0
   -1.7480   14.7280   -4.7320 C   0  0  0  0  0  0  0  0  0  0  0  0
   -0.7400   17.3580   -5.3270 C   0  0  0  0  0  0  0  0  0  0  0  0
   -2.5300   15.6990   -5.2490 C   0  0  0  0  0  0  0  0  0  0  0  0
   -3.8840   15.5110   -5.3810 O   0  0  0  0  0  0  0  0  0  0  0  0
   -1.9870   16.9930   -5.6930 C   0  0  0  0  0  0  0  0  0  0  0  0
   -4.3990   14.7100   -4.2840 C   0  0  0  0  0  0  0  0  0  0  0  0
   -3.5330   14.8630   -3.0160 C   0  0  0  0  0  0  0  0  0  0  0  0
   -4.3380   15.2630   -1.8620 N   0  0  0  0  0  0  0  0  0  0  0  0
   -3.8380   15.2380   -0.6850 C   0  0  0  0  0  0  0  0  0  0  0  0
   -4.5060   15.6190    0.4210 N   0  0  0  0  0  0  0  0  0  0  0  0
   -2.5850   14.8410   -0.3120 N   0  0  0  0  0  0  0  0  0  0  0  0
   -3.9380   14.9260    1.5380 C   0  0  0  0  0  0  0  0  0  0  0  0
   -2.5090   14.7690    1.0610 C   0  0  0  0  0  0  0  0  0  0  0  0
   -1.5030   14.6140    1.7460 O   0  0  0  0  0  0  0  0  0  0  0  0
  1  2  1  0
  2  3  2  0
  2  4  1  0
  4  5  1  0
  5  6  1  0
  5  7  2  0
  6  8  2  0
  7  9  1  0
  8  9  1  0
  7 10  1  0
  9 11  1  6
 10 12  2  0
 12 13  1  0
 11 14  2  0
 12 14  1  0
 13 15  1  0
 15 16  1  0
 16 17  1  0
 17 18  2  3
 18 19  1  0
 18 20  1  0
 19 21  1  0
 20 22  1  0
 21 22  1  0
 22 23  2  0
M  END
