mac-x0522-mac-x0193
     RDKit          3D

 28 30  0  0  0  0  0  0  0  0999 V2000
    3.7560    8.4860  -10.2140 O   0  0  0  0  0  0  0  0  0  0  0  0
    2.8420    8.4470  -11.2130 C   0  0  2  0  0  0  0  0  0  0  0  0
    2.7100    7.0300  -11.2510 N   0  0  0  0  0  0  0  0  0  0  0  0
    3.3990    9.2280  -12.4630 C   0  0  0  0  0  0  0  0  0  0  0  0
    1.5780    9.1680  -10.7160 C   0  0  2  0  0  0  0  0  0  0  0  0
    2.5650    6.4340  -10.0370 C   0  0  0  0  0  0  0  0  0  0  0  0
    4.5070    8.7970  -13.2230 C   0  0  0  0  0  0  0  0  0  0  0  0
    2.7910   10.4450  -12.8740 C   0  0  0  0  0  0  0  0  0  0  0  0
    1.4020    9.4780   -9.2070 C   0  0  0  0  0  0  0  0  0  0  0  0
    0.3190    8.5410  -11.2790 C   0  0  0  0  0  0  0  0  0  0  0  0
    3.3820    5.5850   -9.4550 N   0  0  0  0  0  0  0  0  0  0  0  0
    1.1660    6.8170   -9.0920 S   0  0  0  0  0  0  0  0  0  0  0  0
    4.9710    9.5380  -14.3170 C   0  0  0  0  0  0  0  0  0  0  0  0
    3.2590   11.1840  -13.9670 C   0  0  0  0  0  0  0  0  0  0  0  0
   -0.0540    9.6490   -8.8480 C   0  0  1  0  0  0  0  0  0  0  0  0
   -0.7320    9.6260  -11.3110 C   0  0  0  0  0  0  0  0  0  0  0  0
   -0.2840   10.3010   -7.5450 N   0  0  0  0  0  0  0  0  0  0  0  0
    1.6920    5.7810   -7.8390 C   0  0  0  0  0  0  0  0  0  0  0  0
    2.8890    5.2130   -8.2120 C   0  0  0  0  0  0  0  0  0  0  0  0
    4.3480   10.7260  -14.6830 C   0  0  0  0  0  0  0  0  0  0  0  0
   -0.7520   10.3950   -9.9900 C   0  0  0  0  0  0  0  0  0  0  0  0
    0.5850   11.1430   -6.8890 C   0  0  0  0  0  0  0  0  0  0  0  0
    0.1090   11.5380   -5.6690 N   0  0  0  0  0  0  0  0  0  0  0  0
    1.6610   11.5280   -7.2740 O   0  0  0  0  0  0  0  0  0  0  0  0
    0.9090   12.4460   -4.8640 C   0  0  0  0  0  0  0  0  0  0  0  0
    0.8530   12.0860   -3.3740 C   0  0  0  0  0  0  0  0  0  0  0  0
    0.3470   10.8620   -3.1130 O   0  0  0  0  0  0  0  0  0  0  0  0
    1.2250   12.8340   -2.4870 O   0  0  0  0  0  0  0  0  0  0  0  0
  2  1  1  1
  2  3  1  0
  2  4  1  0
  2  5  1  0
  3  6  1  0
  4  7  2  0
  4  8  1  0
  5  9  1  1
  5 10  1  0
  6 11  2  0
  6 12  1  0
  7 13  1  0
  8 14  2  0
  9 15  1  0
 10 16  1  0
 15 17  1  1
 12 18  1  0
 11 19  1  0
 18 19  2  0
 13 20  2  0
 14 20  1  0
 15 21  1  0
 16 21  1  0
 17 22  1  0
 22 23  1  0
 22 24  2  0
 23 25  1  0
 25 26  1  0
 26 27  1  0
 26 28  2  0
M  END
