mac-x0138-mac-x0182
     RDKit          3D

 25 28  0  0  0  0  0  0  0  0999 V2000
   -0.3120   14.0110   -2.9720 C   0  0  0  0  0  0  0  0  0  0  0  0
   -1.5270   14.2110   -2.2310 N   0  0  0  0  0  0  0  0  0  0  0  0
   -2.7830   14.2600   -2.7380 C   0  0  0  0  0  0  0  0  0  0  0  0
   -1.5860   14.3520   -0.8970 C   0  0  0  0  0  0  0  0  0  0  0  0
   -2.9940   14.0280   -4.2160 C   0  0  0  0  0  0  0  0  0  0  0  0
   -3.6770   14.5060   -1.7540 N   0  0  0  0  0  0  0  0  0  0  0  0
   -2.9140   14.5440   -0.5840 C   0  0  0  0  0  0  0  0  0  0  0  0
   -0.5420   14.2940   -0.0820 N   0  0  0  0  0  0  0  0  0  0  0  0
   -1.8920   13.2100   -4.9010 N   0  0  0  0  0  0  0  0  0  0  0  0
   -3.1800   14.7200    0.7970 C   0  0  0  0  0  0  0  0  0  0  0  0
   -0.9030   14.4200    1.1870 C   0  0  0  0  0  0  0  0  0  0  0  0
   -4.4400   14.9550    1.3360 N   0  0  0  0  0  0  0  0  0  0  0  0
    0.0930   14.2990    2.1190 N   0  0  0  0  0  0  0  0  0  0  0  0
   -2.1340   14.6330    1.6650 N   0  0  0  0  0  0  0  0  0  0  0  0
   -1.2000   11.8390   -4.5290 S   0  0  2  0  0  0  0  0  0  0  0  0
   -0.9820   11.1810   -3.2570 O   0  0  0  0  0  0  0  0  0  0  0  0
    0.3740   12.2230   -5.0220 N   0  0  0  0  0  0  0  0  0  0  0  0
   -1.3950   10.5970   -5.7490 C   0  0  0  0  0  0  0  0  0  0  0  0
    0.6880   11.6500   -6.2280 C   0  0  0  0  0  0  0  0  0  0  0  0
   -0.2970   10.6180   -6.6050 C   0  0  0  0  0  0  0  0  0  0  0  0
   -2.4320    9.7000   -5.9090 C   0  0  0  0  0  0  0  0  0  0  0  0
    1.6600   11.9170   -6.8980 O   0  0  0  0  0  0  0  0  0  0  0  0
   -2.3510    8.8000   -6.9790 C   0  0  0  0  0  0  0  0  0  0  0  0
   -0.2070    9.7320   -7.6700 C   0  0  0  0  0  0  0  0  0  0  0  0
   -1.2470    8.8170   -7.8540 C   0  0  0  0  0  0  0  0  0  0  0  0
  1  2  1  0
  2  3  1  0
  2  4  1  0
  3  5  1  0
  3  6  2  0
  4  7  2  0
  6  7  1  0
  4  8  1  0
  5  9  1  0
  7 10  1  0
  8 11  2  0
 10 12  1  0
 11 13  1  0
 10 14  2  0
 11 14  1  0
  9 15  2  0
 15 16  2  0
 15 17  1  6
 15 18  1  0
 17 19  1  0
 18 20  2  0
 19 20  1  0
 18 21  1  0
 19 22  2  0
 21 23  2  0
 20 24  1  0
 23 25  1  0
 24 25  2  0
M  END
