mac-x0360-mac-x0283
     RDKit          3D

 22 24  0  0  0  0  0  0  0  0999 V2000
   -7.1340   11.8320    1.6450 Cl  0  0  0  0  0  0  0  0  0  0  0  0
   -6.1300   11.7870    0.2420 C   0  0  0  0  0  0  0  0  0  0  0  0
   -6.1540   10.6530   -0.5490 C   0  0  0  0  0  0  0  0  0  0  0  0
   -5.3060   12.8620   -0.1090 C   0  0  0  0  0  0  0  0  0  0  0  0
   -4.5090   12.7700   -1.2820 C   0  0  0  0  0  0  0  0  0  0  0  0
   -5.3510   10.5870   -1.6820 C   0  0  0  0  0  0  0  0  0  0  0  0
   -5.3630    9.1790   -2.6580 Cl  0  0  0  0  0  0  0  0  0  0  0  0
   -3.4570   14.0800   -1.8450 S   0  0  1  0  0  0  0  0  0  0  0  0
   -4.5330   11.6330   -2.0530 C   0  0  0  0  0  0  0  0  0  0  0  0
   -2.5840   13.7410   -3.2200 N   0  0  0  0  0  0  0  0  0  0  0  0
   -4.4650   15.1330   -2.3000 N   0  0  0  0  0  0  0  0  0  0  0  0
   -2.4340   14.2230   -0.8200 O   0  0  0  0  0  0  0  0  0  0  0  0
   -4.7190   15.2020   -0.9730 C   0  0  0  0  0  0  0  0  0  0  0  0
   -5.8470   14.9940   -0.2470 C   0  0  0  0  0  0  0  0  0  0  0  0
   -3.5400   15.4840   -0.3670 C   0  0  0  0  0  0  0  0  0  0  0  0
   -7.1200   14.7010   -0.6380 O   0  0  0  0  0  0  0  0  0  0  0  0
   -5.7730   15.0540    1.1150 C   0  0  0  0  0  0  0  0  0  0  0  0
   -3.4290   15.5660    0.9660 C   0  0  0  0  0  0  0  0  0  0  0  0
   -7.0750   14.7670    1.5370 C   0  0  0  0  0  0  0  0  0  0  0  0
   -7.9040   14.5580    0.5020 N   0  0  0  0  0  0  0  0  0  0  0  0
   -4.5460   15.3530    1.7350 C   0  0  0  0  0  0  0  0  0  0  0  0
   -7.3970   14.7210    2.8420 N   0  0  0  0  0  0  0  0  0  0  0  0
  1  2  1  0
  2  3  2  0
  2  4  1  0
  4  5  2  0
  3  6  1  0
  6  7  1  0
  5  8  1  0
  5  9  1  0
  6  9  2  0
  8 10  1  6
  8 11  2  0
  8 12  2  0
 11 13  1  0
 13 14  1  0
 13 15  2  0
 14 16  1  0
 14 17  2  0
 15 18  1  0
 17 19  1  0
 16 20  1  0
 19 20  2  0
 17 21  1  0
 18 21  2  0
 19 22  1  0
M  END
