mac-x0555-mac-x0394
     RDKit          3D

 25 27  0  0  0  0  0  0  0  0999 V2000
   -7.3400   14.6510    3.1350 N   0  0  0  0  0  0  0  0  0  0  0  0
   -6.9260   14.6720    1.8130 C   0  0  0  0  0  0  0  0  0  0  0  0
   -7.8260   14.4550    0.7900 C   0  0  0  0  0  0  0  0  0  0  0  0
   -5.5870   14.9160    1.4620 C   0  0  0  0  0  0  0  0  0  0  0  0
   -5.2080   14.9290    0.1070 C   0  0  0  0  0  0  0  0  0  0  0  0
   -7.5080   14.4580   -0.5050 N   0  0  0  0  0  0  0  0  0  0  0  0
   -6.2330   14.6850   -0.8220 C   0  0  0  0  0  0  0  0  0  0  0  0
   -3.8910   15.1620   -0.3610 C   0  0  0  0  0  0  0  0  0  0  0  0
   -5.9410   14.6650   -2.1410 C   0  0  0  0  0  0  0  0  0  0  0  0
   -3.6220   15.1290   -1.7450 C   0  0  0  0  0  0  0  0  0  0  0  0
   -4.6790   14.8640   -2.6390 C   0  0  0  0  0  0  0  0  0  0  0  0
   -4.6290   14.7400   -4.1360 C   0  0  0  0  0  0  0  0  0  0  0  0
   -3.7140   15.6340   -4.9330 C   0  0  0  0  0  0  0  0  0  0  0  0
   -2.7210   14.8320   -5.6720 C   0  0  0  0  0  0  0  0  0  0  0  0
   -1.3530   15.1220   -5.1910 C   0  0  0  0  0  0  0  0  0  0  0  0
   -0.5690   14.0810   -4.7240 C   0  0  0  0  0  0  0  0  0  0  0  0
   -0.8560   16.4200   -5.2080 C   0  0  0  0  0  0  0  0  0  0  0  0
    0.7210   14.3050   -4.2690 C   0  0  0  0  0  0  0  0  0  0  0  0
    0.4220   16.6530   -4.7640 C   0  0  0  0  0  0  0  0  0  0  0  0
    0.9930   18.2510   -4.8100 Cl  0  0  0  0  0  0  0  0  0  0  0  0
    1.5300   13.1380   -3.7660 C   0  0  0  0  0  0  0  0  0  0  0  0
    1.2230   15.6120   -4.2920 C   0  0  0  0  0  0  0  0  0  0  0  0
    0.8760   12.3960   -2.6110 C   0  0  0  0  0  0  0  0  0  0  0  0
    0.4610   11.1600   -2.9520 O   0  0  0  0  0  0  0  0  0  0  0  0
    0.6870   12.7750   -1.4620 O   0  0  0  0  0  0  0  0  0  0  0  0
  1  2  1  0
  2  3  2  0
  2  4  1  0
  4  5  2  0
  3  6  1  0
  5  7  1  0
  6  7  2  0
  5  8  1  0
  7  9  1  0
  8 10  2  0
  9 11  2  0
 10 11  1  0
 11 12  1  0
 12 13  1  0
 13 14  1  0
 14 15  1  0
 15 16  2  0
 15 17  1  0
 16 18  1  0
 17 19  2  0
 19 20  1  0
 18 21  1  0
 18 22  2  0
 19 22  1  0
 21 23  1  0
 23 24  1  0
 23 25  2  0
M  END
