mac-x0148-diamond-x0626_0_A
     RDKit          3D

 24 27  0  0  0  0  0  0  0  0999 V2000
   -5.1650   14.2500    0.7350 N   0  0  0  0  0  0  0  0  0  0  0  0
   -6.3890   14.6160    0.2480 C   0  0  0  0  0  0  0  0  0  0  0  0
   -6.6290   15.0480   -0.8680 O   0  0  0  0  0  0  0  0  0  0  0  0
   -3.9560   14.3650    0.0790 C   0  0  0  0  0  0  0  0  0  0  0  0
   -7.4470   14.4030    1.3160 C   0  0  0  0  0  0  0  0  0  0  0  0
   -2.9290   14.6630    0.8430 N   0  0  0  0  0  0  0  0  0  0  0  0
   -3.4030   14.2550   -1.2010 C   0  0  0  0  0  0  0  0  0  0  0  0
   -8.8370   14.7540    0.8290 C   0  0  0  0  0  0  0  0  0  0  0  0
   -2.8690   14.8700    2.1510 C   0  0  0  0  0  0  0  0  0  0  0  0
   -1.7980   14.7630    0.2580 C   0  0  0  0  0  0  0  0  0  0  0  0
   -1.9750   14.5070   -1.0510 C   0  0  0  0  0  0  0  0  0  0  0  0
   -0.7200   15.0690    0.9610 N   0  0  0  0  0  0  0  0  0  0  0  0
   -0.7660   14.5650   -1.7710 C   0  0  0  0  0  0  0  0  0  0  0  0
   -0.6000   14.3210   -3.0840 N   0  0  0  0  0  0  0  0  0  0  0  0
    0.3710   14.8780   -1.1050 N   0  0  0  0  0  0  0  0  0  0  0  0
    0.3250   15.1180    0.1940 C   0  0  0  0  0  0  0  0  0  0  0  0
   -1.7690   14.1520   -3.9230 C   0  0  1  0  0  0  0  0  0  0  0  0
    0.4520   13.3190   -3.2530 C   0  0  0  0  0  0  0  0  0  0  0  0
   -2.5820   15.3640   -4.3560 C   0  0  0  0  0  0  0  0  0  0  0  0
   -1.3710   13.6120   -5.2880 C   0  0  2  0  0  0  0  0  0  0  0  0
   -0.1790   12.0360   -3.7910 C   0  0  0  0  0  0  0  0  0  0  0  0
   -2.6960   13.6960   -5.9860 C   0  0  0  0  0  0  0  0  0  0  0  0
   -3.1830   15.0050   -5.6290 O   0  0  0  0  0  0  0  0  0  0  0  0
   -0.6870   12.2580   -5.2140 C   0  0  0  0  0  0  0  0  0  0  0  0
  1  2  1  0
  2  3  2  0
  1  4  1  0
  2  5  1  0
  4  6  1  0
  4  7  2  0
  5  8  1  0
  6  9  1  0
  6 10  1  0
  7 11  1  0
 10 11  2  0
 10 12  1  0
 11 13  1  0
 13 14  1  0
 13 15  2  0
 12 16  2  0
 15 16  1  0
 14 17  1  0
 14 18  1  0
 17 19  1  6
 17 20  1  0
 18 21  1  0
 20 22  1  6
 19 23  1  0
 22 23  1  0
 20 24  1  0
 21 24  1  0
M  END
