mac-x0441-mac-x0179
     RDKit          3D

 18 19  0  0  0  0  0  0  0  0999 V2000
    0.3120   10.7250   -2.9290 O   0  0  0  0  0  0  0  0  0  0  0  0
    0.6990   11.9570   -3.3010 C   0  0  0  0  0  0  0  0  0  0  0  0
    1.5490   12.5540   -2.6600 O   0  0  0  0  0  0  0  0  0  0  0  0
    0.0140   12.5010   -4.5230 C   0  0  0  0  0  0  0  0  0  0  0  0
   -0.2450   11.5510   -5.5880 N   0  0  0  0  0  0  0  0  0  0  0  0
    0.6580   11.4530   -6.7230 N   0  0  0  0  0  0  0  0  0  0  0  0
   -1.2700   10.6610   -5.7370 C   0  0  0  0  0  0  0  0  0  0  0  0
    1.6340   12.2000   -6.6890 O   0  0  0  0  0  0  0  0  0  0  0  0
    0.1750   10.5210   -7.5770 C   0  0  0  0  0  0  0  0  0  0  0  0
   -1.0240   10.0210   -6.9590 C   0  0  0  0  0  0  0  0  0  0  0  0
   -2.4100   10.4120   -4.8210 C   0  0  0  0  0  0  0  0  0  0  0  0
    0.7960   10.1530   -8.8430 C   0  0  0  0  0  0  0  0  0  0  0  0
   -1.9320    8.9670   -7.4890 C   0  0  0  0  0  0  0  0  0  0  0  0
   -3.4410    9.4990   -5.5140 C   0  0  0  0  0  0  0  0  0  0  0  0
    1.6070    9.0690   -8.7250 F   0  0  0  0  0  0  0  0  0  0  0  0
   -0.1380    9.7840   -9.7510 F   0  0  0  0  0  0  0  0  0  0  0  0
    1.4850   11.1240   -9.4550 F   0  0  0  0  0  0  0  0  0  0  0  0
   -2.7840    8.3880   -6.3520 C   0  0  0  0  0  0  0  0  0  0  0  0
  1  2  1  0
  2  3  2  0
  2  4  1  0
  4  5  1  0
  5  6  1  0
  5  7  1  0
  6  8  1  0
  6  9  2  0
  7 10  2  0
  9 10  1  0
  7 11  1  0
  9 12  1  0
 10 13  1  0
 11 14  1  0
 12 15  1  0
 12 16  1  0
 12 17  1  0
 13 18  1  0
 14 18  1  0
M  CHG  2   6   1   8  -1
M  END
