mac-x0123-diamond-x0900_0_A
     RDKit          3D

 13 15  0  0  0  0  0  0  0  0999 V2000
   -3.5520   14.6460    1.7260 N   0  0  0  0  0  0  0  0  0  0  0  0
   -4.6270   14.6480    0.8480 C   0  0  0  0  0  0  0  0  0  0  0  0
   -5.9210   14.5320    1.1910 C   0  0  0  0  0  0  0  0  0  0  0  0
   -4.3460   14.7660   -0.5310 N   0  0  0  0  0  0  0  0  0  0  0  0
   -5.3550   14.7730   -1.5050 C   0  0  0  0  0  0  0  0  0  0  0  0
   -6.9230   14.5710    0.0890 C   0  0  0  0  0  0  0  0  0  0  0  0
   -6.6340   14.3660    2.4790 C   0  0  0  0  0  0  0  0  0  0  0  0
   -3.1300   14.8780   -1.1320 N   0  0  0  0  0  0  0  0  0  0  0  0
   -6.6830   14.6780   -1.1750 N   0  0  0  0  0  0  0  0  0  0  0  0
   -8.3190   14.4820    0.6270 C   0  0  0  0  0  0  0  0  0  0  0  0
   -8.1190   14.2270    2.1230 C   0  0  0  0  0  0  0  0  0  0  0  0
   -4.7990   14.8820   -2.6940 N   0  0  0  0  0  0  0  0  0  0  0  0
   -3.4700   14.9430   -2.4160 C   0  0  0  0  0  0  0  0  0  0  0  0
  1  2  1  0
  2  3  2  0
  2  4  1  0
  4  5  1  0
  3  6  1  0
  3  7  1  0
  4  8  1  0
  5  9  1  0
  6  9  2  0
  6 10  1  0
  7 11  1  0
 10 11  1  0
  5 12  2  0
  8 13  2  0
 12 13  1  0
M  END
