mac-x0510-diamond-x0685_0_A
     RDKit          3D

 14 15  0  0  0  0  0  0  0  0999 V2000
   -6.1750   14.8200    0.9200 N   0  0  0  0  0  0  0  0  0  0  0  0
   -6.6240   14.6620    2.3220 C   0  0  0  0  0  0  0  0  0  0  0  0
   -7.1510   13.2470    2.5360 C   0  0  0  0  0  0  0  0  0  0  0  0
   -4.9170   14.8970    0.5960 C   0  0  0  0  0  0  0  0  0  0  0  0
   -3.9160   14.8160    1.5420 N   0  0  0  0  0  0  0  0  0  0  0  0
   -4.7190   15.0530   -0.7670 N   0  0  0  0  0  0  0  0  0  0  0  0
   -2.7110   14.7860    1.0980 C   0  0  0  0  0  0  0  0  0  0  0  0
   -3.5110   15.0360   -1.2240 C   0  0  0  0  0  0  0  0  0  0  0  0
   -3.3720   15.2000   -2.6360 C   0  0  0  0  0  0  0  0  0  0  0  0
   -2.4070   14.8620   -0.3150 C   0  0  0  0  0  0  0  0  0  0  0  0
   -1.5330   14.6810    1.7710 N   0  0  0  0  0  0  0  0  0  0  0  0
   -3.2160   15.3310   -3.7750 N   0  0  0  0  0  0  0  0  0  0  0  0
   -1.1270   14.7690   -0.4830 N   0  0  0  0  0  0  0  0  0  0  0  0
   -0.6460   14.6650    0.8200 C   0  0  0  0  0  0  0  0  0  0  0  0
  1  2  1  0
  2  3  1  0
  1  4  2  3
  4  5  1  0
  4  6  1  0
  5  7  2  0
  6  8  2  0
  8  9  1  0
  7 10  1  0
  8 10  1  0
  7 11  1  0
  9 12  3  0
 10 13  2  0
 11 14  2  0
 13 14  1  0
M  END
