mac-x0284-mac-x0148
     RDKit          3D

 29 33  0  0  0  0  0  0  0  0999 V2000
   -3.8640   16.1320    1.2590 C   0  0  0  0  0  0  0  0  0  0  0  0
   -3.5970   15.8520   -0.1800 C   0  0  0  0  0  0  0  0  0  0  0  0
   -4.6440   15.4460   -0.9980 C   0  0  0  0  0  0  0  0  0  0  0  0
   -2.2980   15.9940   -0.7140 C   0  0  0  0  0  0  0  0  0  0  0  0
   -2.0450   15.7250   -2.0680 C   0  0  0  0  0  0  0  0  0  0  0  0
   -4.4100   15.1710   -2.3330 C   0  0  0  0  0  0  0  0  0  0  0  0
   -0.6390   15.9050   -2.5830 C   0  0  0  0  0  0  0  0  0  0  0  0
   -3.1270   15.3060   -2.8570 C   0  0  0  0  0  0  0  0  0  0  0  0
   -2.9500   15.0200   -4.1620 O   0  0  0  0  0  0  0  0  0  0  0  0
    0.3150   15.2270   -2.2390 O   0  0  0  0  0  0  0  0  0  0  0  0
   -0.4970   16.9030   -3.4860 O   0  0  0  0  0  0  0  0  0  0  0  0
   -1.6010   14.7250   -4.5580 C   0  0  2  0  0  0  0  0  0  0  0  0
   -1.7420   14.2380   -5.8940 O   0  0  0  0  0  0  0  0  0  0  0  0
   -0.8820   13.5010   -3.9240 C   0  0  2  0  0  0  0  0  0  0  0  0
   -2.1760   12.8660   -5.7950 C   0  0  0  0  0  0  0  0  0  0  0  0
   -1.7550   12.3690   -4.4230 C   0  0  1  0  0  0  0  0  0  0  0  0
   -0.4030   13.2370   -2.5110 N   0  0  0  0  0  0  0  0  0  0  0  0
   -0.9940   11.0510   -4.3740 C   0  0  0  0  0  0  0  0  0  0  0  0
    0.4550   12.0380   -2.5180 C   0  0  0  0  0  0  0  0  0  0  0  0
   -0.8990   13.6500   -1.2440 C   0  0  0  0  0  0  0  0  0  0  0  0
   -0.3460   10.8250   -2.9950 C   0  0  0  0  0  0  0  0  0  0  0  0
    0.0140   14.2490   -0.3920 N   0  0  0  0  0  0  0  0  0  0  0  0
   -2.1360   13.5170   -0.7180 C   0  0  0  0  0  0  0  0  0  0  0  0
   -0.2910   14.6660    0.8790 C   0  0  0  0  0  0  0  0  0  0  0  0
   -2.4000   13.9940    0.6760 C   0  0  0  0  0  0  0  0  0  0  0  0
   -3.4000   12.9910   -1.1240 C   0  0  0  0  0  0  0  0  0  0  0  0
   -1.4390   14.5760    1.4680 N   0  0  0  0  0  0  0  0  0  0  0  0
   -3.6380   13.7810    1.0320 N   0  0  0  0  0  0  0  0  0  0  0  0
   -4.2150   13.1730   -0.0690 C   0  0  0  0  0  0  0  0  0  0  0  0
  1  2  1  0
  2  3  2  0
  2  4  1  0
  4  5  2  0
  3  6  1  0
  5  7  1  0
  5  8  1  0
  6  8  2  0
  8  9  1  0
  7 10  2  0
  7 11  1  0
 12  9  1  1
 12 13  1  0
 12 14  1  0
 13 15  1  0
 14 16  1  0
 16 15  1  6
 14 17  1  1
 16 18  1  0
 17 19  1  0
 17 20  1  0
 18 21  1  0
 19 21  1  0
 20 22  1  0
 20 23  2  0
 22 24  1  0
 23 25  1  0
 23 26  1  0
 24 27  2  0
 25 27  1  0
 25 28  2  0
 26 29  2  0
 28 29  1  0
M  END
