mac-x0180-mac-x0212
     RDKit          3D

 14 14  0  0  0  0  0  0  0  0999 V2000
   -7.8730   14.6880    1.4580 C   0  0  0  0  0  0  0  0  0  0  0  0
   -6.7290   14.2230    0.5600 C   0  0  0  0  0  0  0  0  0  0  0  0
   -7.1340   14.4940   -0.7760 O   0  0  0  0  0  0  0  0  0  0  0  0
   -5.4980   14.9650    0.6890 N   0  0  0  0  0  0  0  0  0  0  0  0
   -6.4810   12.7220    0.6700 C   0  0  0  0  0  0  0  0  0  0  0  0
   -4.4370   14.9540   -0.1980 C   0  0  0  0  0  0  0  0  0  0  0  0
   -3.1480   14.7440    0.3210 C   0  0  0  0  0  0  0  0  0  0  0  0
   -4.5570   15.1310   -1.5750 C   0  0  0  0  0  0  0  0  0  0  0  0
   -2.0200   14.7080   -0.5040 C   0  0  0  0  0  0  0  0  0  0  0  0
   -3.4410   15.0990   -2.4140 C   0  0  0  0  0  0  0  0  0  0  0  0
   -2.1740   14.8880   -1.8840 C   0  0  0  0  0  0  0  0  0  0  0  0
   -1.0210   14.8710   -2.8130 C   0  0  0  0  0  0  0  0  0  0  0  0
   -1.1430   14.8870   -4.0250 O   0  0  0  0  0  0  0  0  0  0  0  0
    0.1720   14.8500   -2.1840 O   0  0  0  0  0  0  0  0  0  0  0  0
  1  2  1  0
  2  3  1  0
  2  4  1  0
  2  5  1  0
  4  6  1  0
  6  7  2  0
  6  8  1  0
  7  9  1  0
  8 10  2  0
  9 11  2  0
 10 11  1  0
 11 12  1  0
 12 13  2  0
 12 14  1  0
M  END
