mac-x0182-mac-x0412
     RDKit          3D

 25 28  0  0  0  0  0  0  0  0999 V2000
    1.6900   11.8720   -6.9750 O   0  0  0  0  0  0  0  0  0  0  0  0
    0.7690   11.5890   -6.2520 C   0  0  0  0  0  0  0  0  0  0  0  0
    0.5550   12.1150   -5.0040 N   0  0  0  0  0  0  0  0  0  0  0  0
   -0.2540   10.5790   -6.6140 C   0  0  0  0  0  0  0  0  0  0  0  0
   -0.6280   11.2510   -4.1770 S   0  0  2  0  0  0  0  0  0  0  0  0
   -1.1060   10.2910   -5.5550 C   0  0  0  0  0  0  0  0  0  0  0  0
   -0.4050    9.9480   -7.8400 C   0  0  0  0  0  0  0  0  0  0  0  0
   -1.5980   12.3810   -3.8260 N   0  0  0  0  0  0  0  0  0  0  0  0
    0.0700   10.4030   -3.2480 O   0  0  0  0  0  0  0  0  0  0  0  0
   -2.1360    9.3730   -5.6590 C   0  0  0  0  0  0  0  0  0  0  0  0
   -1.4410    9.0150   -7.9740 C   0  0  0  0  0  0  0  0  0  0  0  0
   -1.3660   13.0630   -2.5200 C   0  0  0  0  0  0  0  0  0  0  0  0
   -2.2970    8.7310   -6.8910 C   0  0  0  0  0  0  0  0  0  0  0  0
   -1.7860   14.5580   -2.5150 C   0  0  0  0  0  0  0  0  0  0  0  0
   -3.0610   14.7640   -1.7180 C   0  0  0  0  0  0  0  0  0  0  0  0
   -3.1270   14.5490   -0.3850 C   0  0  0  0  0  0  0  0  0  0  0  0
   -4.2480   15.1850   -2.4380 C   0  0  0  0  0  0  0  0  0  0  0  0
   -4.3850   14.6790    0.3280 C   0  0  0  0  0  0  0  0  0  0  0  0
   -5.4590   15.0240   -1.8880 C   0  0  0  0  0  0  0  0  0  0  0  0
   -5.6080   14.3950   -0.5240 C   0  0  2  0  0  0  0  0  0  0  0  0
   -4.4720   14.9850    1.6240 C   0  0  0  0  0  0  0  0  0  0  0  0
   -6.9440   14.7380    0.1810 C   0  0  0  0  0  0  0  0  0  0  0  0
   -5.8360   15.0040    2.1850 C   0  0  0  0  0  0  0  0  0  0  0  0
   -7.9770   14.8900   -0.4600 O   0  0  0  0  0  0  0  0  0  0  0  0
   -6.9540   14.8760    1.5540 N   0  0  0  0  0  0  0  0  0  0  0  0
  1  2  2  0
  2  3  1  0
  2  4  1  0
  5  3  1  6
  4  6  2  0
  5  6  1  0
  4  7  1  0
  5  8  2  0
  5  9  2  0
  6 10  1  0
  7 11  2  0
  8 12  1  0
 10 13  2  0
 11 13  1  0
 12 14  1  0
 14 15  1  0
 15 16  2  0
 15 17  1  0
 16 18  1  0
 17 19  2  0
 18 20  1  0
 20 19  1  6
 18 21  2  0
 20 22  1  0
 21 23  1  0
 22 24  2  0
 22 25  1  0
 23 25  2  0
M  END
