mac-x0132-mac-x0305
     RDKit          3D

 15 16  0  0  0  0  0  0  0  0999 V2000
   -4.2340   15.0410    2.1910 N   0  0  0  0  0  0  0  0  0  0  0  0
   -5.1080   14.8970    1.1170 C   0  0  0  0  0  0  0  0  0  0  0  0
   -6.4220   14.8750    1.3760 N   0  0  0  0  0  0  0  0  0  0  0  0
   -4.5400   14.7920   -0.1290 C   0  0  0  0  0  0  0  0  0  0  0  0
   -5.4560   14.6940   -1.1730 C   0  0  0  0  0  0  0  0  0  0  0  0
   -7.2100   14.7630    0.3000 C   0  0  0  0  0  0  0  0  0  0  0  0
   -3.1280   14.7740   -0.3570 C   0  0  0  0  0  0  0  0  0  0  0  0
   -2.2320   14.8590    0.7100 O   0  0  0  0  0  0  0  0  0  0  0  0
   -6.7870   14.6830   -0.9700 N   0  0  0  0  0  0  0  0  0  0  0  0
   -4.9380   14.6040   -2.4570 C   0  0  0  0  0  0  0  0  0  0  0  0
   -2.6080   14.6530   -1.6420 C   0  0  0  0  0  0  0  0  0  0  0  0
   -1.1070   14.5790   -1.9190 C   0  0  0  0  0  0  0  0  0  0  0  0
   -3.5420   14.5820   -2.7040 C   0  0  0  0  0  0  0  0  0  0  0  0
   -0.3530   13.9190   -0.9950 O   0  0  0  0  0  0  0  0  0  0  0  0
   -0.5810   15.0520   -2.9120 O   0  0  0  0  0  0  0  0  0  0  0  0
  1  2  1  0
  2  3  2  0
  2  4  1  0
  4  5  2  0
  3  6  1  0
  4  7  1  0
  7  8  1  0
  5  9  1  0
  6  9  2  0
  5 10  1  0
  7 11  2  0
 11 12  1  0
 10 13  2  0
 11 13  1  0
 12 14  1  0
 12 15  2  0
M  END
