mac-x0381-diamond-x0591_0_A
     RDKit          3D

 28 30  0  0  0  0  0  0  0  0999 V2000
   -8.1790   13.2150    4.2060 N   0  0  0  0  0  0  0  0  0  0  0  0
   -8.0890   14.6100    3.8430 C   0  0  0  0  0  0  0  0  0  0  0  0
   -7.6080   15.2700    5.0350 N   0  0  0  0  0  0  0  0  0  0  0  0
   -7.1210   14.8360    2.6690 C   0  0  0  0  0  0  0  0  0  0  0  0
   -9.4660   15.1730    3.4460 C   0  0  0  0  0  0  0  0  0  0  0  0
   -6.7220   13.6800    1.7770 C   0  0  0  0  0  0  0  0  0  0  0  0
   -9.6340   15.9440    2.2810 C   0  0  0  0  0  0  0  0  0  0  0  0
  -10.6140   14.9410    4.2250 C   0  0  0  0  0  0  0  0  0  0  0  0
   -5.7570   14.1420    0.7960 N   0  0  0  0  0  0  0  0  0  0  0  0
  -10.8700   16.4670    1.8890 C   0  0  0  0  0  0  0  0  0  0  0  0
  -11.8630   15.4520    3.8520 C   0  0  0  0  0  0  0  0  0  0  0  0
   -6.1950   14.6790   -0.3940 C   0  0  0  0  0  0  0  0  0  0  0  0
  -12.0040   16.2170    2.6830 C   0  0  0  0  0  0  0  0  0  0  0  0
  -10.9970   17.2350    0.7180 C   0  0  0  0  0  0  0  0  0  0  0  0
   -7.3240   15.1280   -0.5550 O   0  0  0  0  0  0  0  0  0  0  0  0
  -13.2470   16.7350    2.2860 C   0  0  0  0  0  0  0  0  0  0  0  0
  -12.2350   17.7470    0.3370 C   0  0  0  0  0  0  0  0  0  0  0  0
   -5.2380   14.6770   -1.5250 C   0  0  0  0  0  0  0  0  0  0  0  0
  -13.3610   17.4970    1.1180 C   0  0  0  0  0  0  0  0  0  0  0  0
   -3.8670   14.5150   -1.2690 C   0  0  0  0  0  0  0  0  0  0  0  0
   -5.6810   14.8260   -2.8340 C   0  0  0  0  0  0  0  0  0  0  0  0
   -2.9520   14.5020   -2.3270 C   0  0  0  0  0  0  0  0  0  0  0  0
   -4.7740   14.8100   -3.8870 C   0  0  0  0  0  0  0  0  0  0  0  0
   -3.4190   14.6480   -3.6340 C   0  0  0  0  0  0  0  0  0  0  0  0
   -2.3210   14.6270   -5.0260 S   0  0  0  0  0  0  0  0  0  0  0  0
   -1.0820   15.6580   -4.5520 N   0  0  0  0  0  0  0  0  0  0  0  0
   -1.7350   13.3100   -5.1080 O   0  0  0  0  0  0  0  0  0  0  0  0
   -3.0130   15.2380   -6.1350 O   0  0  0  0  0  0  0  0  0  0  0  0
  2  1  1  0
  2  3  1  0
  2  4  1  0
  2  5  1  0
  4  6  1  0
  5  7  2  0
  5  8  1  0
  6  9  1  0
  7 10  1  0
  8 11  2  0
  9 12  1  0
 10 13  2  0
 11 13  1  0
 10 14  1  0
 12 15  2  0
 13 16  1  0
 14 17  2  0
 12 18  1  0
 16 19  2  0
 17 19  1  0
 18 20  2  0
 18 21  1  0
 20 22  1  0
 21 23  2  0
 22 24  2  0
 23 24  1  0
 24 25  1  0
 25 26  1  0
 25 27  2  0
 25 28  2  0
M  END
