mac-x0572-mac-x0337
     RDKit          3D

 24 26  0  0  0  0  0  0  0  0999 V2000
   -8.3960   14.4430    3.1070 C   0  0  0  0  0  0  0  0  0  0  0  0
   -7.4920   14.6450    1.9150 C   0  0  0  0  0  0  0  0  0  0  0  0
   -6.2060   14.8690    2.2770 N   0  0  0  0  0  0  0  0  0  0  0  0
   -7.9280   14.6040    0.6480 C   0  0  0  0  0  0  0  0  0  0  0  0
   -9.2440   14.3720    0.2990 O   0  0  0  0  0  0  0  0  0  0  0  0
   -6.9290   14.8260   -0.4420 C   0  0  0  0  0  0  0  0  0  0  0  0
   -5.3150   15.2360    1.4290 C   0  0  0  0  0  0  0  0  0  0  0  0
   -7.2320   14.4970   -1.5890 O   0  0  0  0  0  0  0  0  0  0  0  0
   -5.6210   15.4710   -0.0340 C   0  0  1  0  0  0  0  0  0  0  0  0
   -3.9430   15.4200    1.9530 C   0  0  0  0  0  0  0  0  0  0  0  0
   -2.9440   15.4500    1.0960 C   0  0  0  0  0  0  0  0  0  0  0  0
   -4.4090   15.3320   -0.7940 C   0  0  0  0  0  0  0  0  0  0  0  0
   -4.3700   15.2030   -2.1250 N   0  0  0  0  0  0  0  0  0  0  0  0
   -3.1850   15.3210   -0.2890 C   0  0  0  0  0  0  0  0  0  0  0  0
   -3.0350   14.2040   -2.1470 S   0  0  0  0  0  0  0  0  0  0  0  0
   -2.4930   14.3840   -3.4570 O   0  0  0  0  0  0  0  0  0  0  0  0
   -2.2430   14.3680   -0.9360 O   0  0  0  0  0  0  0  0  0  0  0  0
   -3.9470   12.7040   -2.0110 C   0  0  0  0  0  0  0  0  0  0  0  0
   -3.5220   11.6300   -2.7560 C   0  0  0  0  0  0  0  0  0  0  0  0
   -5.0760   12.6180   -1.1760 C   0  0  0  0  0  0  0  0  0  0  0  0
   -4.2260   10.4410   -2.6940 C   0  0  0  0  0  0  0  0  0  0  0  0
   -5.7840   11.4170   -1.1170 C   0  0  0  0  0  0  0  0  0  0  0  0
   -5.3590   10.3250   -1.8860 C   0  0  0  0  0  0  0  0  0  0  0  0
   -6.0990    9.0240   -1.8570 C   0  0  0  0  0  0  0  0  0  0  0  0
  1  2  1  0
  2  3  1  0
  2  4  2  0
  4  5  1  0
  4  6  1  0
  3  7  2  0
  6  8  2  0
  9  6  1  6
  7  9  1  0
  7 10  1  0
 10 11  2  0
  9 12  1  0
 12 13  1  0
 11 14  1  0
 12 14  2  0
 15 13  1  0
 15 16  2  0
 15 17  2  0
 15 18  1  0
 18 19  2  0
 18 20  1  0
 19 21  1  0
 20 22  2  0
 21 23  2  0
 22 23  1  0
 23 24  1  0
M  END
