mac-x0354-diamond-x0849_0_A
     RDKit          3D

 28 31  0  0  0  0  0  0  0  0999 V2000
    0.5530   11.0760   -8.3780 C   0  0  0  0  0  0  0  0  0  0  0  0
    0.8500   11.5250   -7.0360 N   0  0  0  0  0  0  0  0  0  0  0  0
    1.8350   12.3970   -6.8300 N   0  0  0  0  0  0  0  0  0  0  0  0
    0.2180   11.1480   -5.8940 C   0  0  0  0  0  0  0  0  0  0  0  0
    1.8520   12.5950   -5.5430 C   0  0  0  0  0  0  0  0  0  0  0  0
    0.8750   11.8490   -4.8830 C   0  0  0  0  0  0  0  0  0  0  0  0
   -0.8690   10.1990   -5.9380 C   0  0  0  0  0  0  0  0  0  0  0  0
    0.7580   11.9180   -3.4730 C   0  0  0  0  0  0  0  0  0  0  0  0
   -0.6330    8.8790   -6.3520 C   0  0  0  0  0  0  0  0  0  0  0  0
   -2.1530   10.5890   -5.5820 C   0  0  0  0  0  0  0  0  0  0  0  0
    1.3330   12.9560   -3.0150 N   0  0  0  0  0  0  0  0  0  0  0  0
    0.1470   10.9150   -2.8090 O   0  0  0  0  0  0  0  0  0  0  0  0
   -1.6800    7.9670   -6.4030 C   0  0  0  0  0  0  0  0  0  0  0  0
   -3.1970    9.6750   -5.6380 C   0  0  0  0  0  0  0  0  0  0  0  0
    1.4980   13.2990   -1.6430 C   0  0  0  0  0  0  0  0  0  0  0  0
   -2.9630    8.3650   -6.0460 C   0  0  0  0  0  0  0  0  0  0  0  0
    1.0980   14.6900   -1.2280 C   0  0  0  0  0  0  0  0  0  0  0  0
   -0.1420   14.7290   -0.3980 C   0  0  0  0  0  0  0  0  0  0  0  0
   -0.1960   14.6800    0.9910 C   0  0  0  0  0  0  0  0  0  0  0  0
   -1.3370   14.8300   -1.0420 C   0  0  0  0  0  0  0  0  0  0  0  0
   -2.5220   14.9010   -0.3130 C   0  0  0  0  0  0  0  0  0  0  0  0
   -1.3180   14.7280    1.7170 N   0  0  0  0  0  0  0  0  0  0  0  0
   -2.4610   14.8470    1.0790 C   0  0  0  0  0  0  0  0  0  0  0  0
   -3.7700   15.0300   -0.9070 C   0  0  0  0  0  0  0  0  0  0  0  0
   -3.9360   15.1010   -2.7960 Br  0  0  0  0  0  0  0  0  0  0  0  0
   -3.5460   14.9180    1.8150 N   0  0  0  0  0  0  0  0  0  0  0  0
   -4.9130   15.1110   -0.1360 C   0  0  0  0  0  0  0  0  0  0  0  0
   -4.7400   15.0490    1.2260 C   0  0  0  0  0  0  0  0  0  0  0  0
  1  2  1  0
  2  3  1  0
  2  4  1  0
  3  5  2  0
  4  6  2  0
  5  6  1  0
  4  7  1  0
  6  8  1  0
  7  9  2  0
  7 10  1  0
  8 11  2  3
  8 12  1  0
  9 13  1  0
 10 14  2  0
 11 15  1  0
 13 16  2  0
 14 16  1  0
 15 17  1  0
 17 18  1  0
 18 19  2  0
 18 20  1  0
 20 21  2  0
 19 22  1  0
 21 23  1  0
 22 23  2  0
 21 24  1  0
 24 25  1  0
 23 26  1  0
 24 27  2  0
 26 28  2  0
 27 28  1  0
M  END
