mac-x0347-diamond-x0626_0_A
     RDKit          3D

 25 27  0  0  0  0  0  0  0  0999 V2000
    1.1280   14.5580   -3.7240 O   0  0  0  0  0  0  0  0  0  0  0  0
    0.2250   14.0880   -2.8360 C   0  0  0  0  0  0  0  0  0  0  0  0
    0.5580   13.4570   -1.8480 O   0  0  0  0  0  0  0  0  0  0  0  0
   -1.1970   14.3920   -3.1610 C   0  0  0  0  0  0  0  0  0  0  0  0
   -2.2240   14.3790   -2.2170 C   0  0  0  0  0  0  0  0  0  0  0  0
   -1.5630   14.7070   -4.4590 C   0  0  0  0  0  0  0  0  0  0  0  0
   -3.5750   14.6770   -2.5700 C   0  0  0  0  0  0  0  0  0  0  0  0
   -2.8440   14.9910   -4.8320 N   0  0  0  0  0  0  0  0  0  0  0  0
   -3.8160   14.9680   -3.8870 C   0  0  0  0  0  0  0  0  0  0  0  0
   -4.5400   14.6520   -1.4750 C   0  0  0  0  0  0  0  0  0  0  0  0
   -3.8490   14.7470   -0.4300 C   0  0  0  0  0  0  0  0  0  0  0  0
   -5.9020   14.5620   -1.2580 C   0  0  0  0  0  0  0  0  0  0  0  0
   -4.2160   14.7760    0.8070 C   0  0  0  0  0  0  0  0  0  0  0  0
   -6.3520   14.5930    0.1060 C   0  0  0  0  0  0  0  0  0  0  0  0
   -5.4890   14.7100    1.2160 C   0  0  0  0  0  0  0  0  0  0  0  0
   -2.9160   14.8630    1.0670 C   0  0  0  0  0  0  0  0  0  0  0  0
   -7.7340   14.5030    0.3920 C   0  0  0  0  0  0  0  0  0  0  0  0
   -2.1620   14.2710    1.8560 N   0  0  0  0  0  0  0  0  0  0  0  0
   -2.2940   15.9450   -0.1100 S   0  0  0  0  0  0  0  0  0  0  0  0
   -8.4850   14.4900   -0.5560 O   0  0  0  0  0  0  0  0  0  0  0  0
   -8.1980   14.4450    1.8110 C   0  0  0  0  0  0  0  0  0  0  0  0
   -0.7860   15.5410    0.4280 C   0  0  0  0  0  0  0  0  0  0  0  0
   -0.9320   14.6490    1.4390 C   0  0  0  0  0  0  0  0  0  0  0  0
   -9.6340   14.8710    1.8230 C   0  0  0  0  0  0  0  0  0  0  0  0
    0.1130   14.0290    2.1120 C   0  0  0  0  0  0  0  0  0  0  0  0
  1  2  1  0
  2  3  2  0
  2  4  1  0
  4  5  2  0
  4  6  1  0
  5  7  1  0
  6  8  2  0
  7  9  2  0
  8  9  1  0
  7 10  1  0
 10 11  2  0
 10 12  1  0
 11 13  1  0
 12 14  2  0
 13 15  2  0
 14 15  1  0
 13 16  1  0
 14 17  1  0
 16 18  2  0
 16 19  1  0
 17 20  2  0
 17 21  1  0
 19 22  1  0
 18 23  1  0
 22 23  2  0
 21 24  1  0
 23 25  1  0
M  END
