mac-x0124-mac-x0284
     RDKit          3D

 14 15  0  0  0  0  0  0  0  0999 V2000
   -0.1750   14.8730   -3.2310 C   0  0  0  0  0  0  0  0  0  0  0  0
    0.8930   13.9880   -2.7050 C   0  0  0  0  0  0  0  0  0  0  0  0
    1.1910   13.8970   -1.5260 O   0  0  0  0  0  0  0  0  0  0  0  0
   -1.3160   14.9090   -2.3490 N   0  0  0  0  0  0  0  0  0  0  0  0
   -2.6100   15.0250   -2.7680 C   0  0  0  0  0  0  0  0  0  0  0  0
   -1.2640   14.8510   -0.9750 C   0  0  0  0  0  0  0  0  0  0  0  0
   -2.8620   15.0930   -4.0710 O   0  0  0  0  0  0  0  0  0  0  0  0
   -3.4150   15.0560   -1.6410 C   0  0  0  0  0  0  0  0  0  0  0  0
   -2.5670   14.9440   -0.4980 C   0  0  0  0  0  0  0  0  0  0  0  0
   -0.1480   14.7350   -0.2430 N   0  0  0  0  0  0  0  0  0  0  0  0
   -2.7190   14.9210    0.8960 C   0  0  0  0  0  0  0  0  0  0  0  0
   -0.4240   14.7140    1.0740 C   0  0  0  0  0  0  0  0  0  0  0  0
   -3.9540   15.0330    1.5120 N   0  0  0  0  0  0  0  0  0  0  0  0
   -1.6280   14.7890    1.6760 N   0  0  0  0  0  0  0  0  0  0  0  0
  1  2  1  0
  2  3  2  0
  1  4  1  0
  4  5  1  0
  4  6  1  0
  5  7  1  0
  5  8  2  0
  6  9  2  0
  8  9  1  0
  6 10  1  0
  9 11  1  0
 10 12  2  0
 11 13  1  0
 11 14  2  0
 12 14  1  0
M  END
