mac-x0361-mac-x0115
     RDKit          3D

 23 24  0  0  0  0  0  0  0  0999 V2000
   -5.9420   14.8920    1.6810 N   0  0  0  0  0  0  0  0  0  0  0  0
   -6.0840   14.8690    0.3310 C   0  0  0  0  0  0  0  0  0  0  0  0
   -7.2110   14.9650   -0.1610 O   0  0  0  0  0  0  0  0  0  0  0  0
   -4.8140   14.6970   -0.5240 C   0  0  2  0  0  0  0  0  0  0  0  0
   -3.4570   15.3540   -0.1010 C   0  0  0  0  0  0  0  0  0  0  0  0
   -5.0400   14.9270   -1.9680 C   0  0  0  0  0  0  0  0  0  0  0  0
   -2.1990   14.8360   -0.9290 C   0  0  2  0  0  0  0  0  0  0  0  0
   -4.0320   14.5850   -2.7470 C   0  0  0  0  0  0  0  0  0  0  0  0
   -2.7790   13.9980   -2.1170 C   0  0  1  0  0  0  0  0  0  0  0  0
   -1.1130   14.3170    0.0800 C   0  0  0  0  0  0  0  0  0  0  0  0
   -1.3120   15.8200   -1.7100 C   0  0  0  0  0  0  0  0  0  0  0  0
   -1.8490   13.8670   -3.1690 O   0  0  0  0  0  0  0  0  0  0  0  0
   -1.3560   14.1330    1.2770 O   0  0  0  0  0  0  0  0  0  0  0  0
   -0.1530   15.1360   -2.3600 N   0  0  0  0  0  0  0  0  0  0  0  0
    0.2010   14.1100   -0.3440 N   0  0  0  0  0  0  0  0  0  0  0  0
   -0.1540   14.8680   -3.8210 C   0  0  0  0  0  0  0  0  0  0  0  0
    0.7370   14.4700   -1.5460 C   0  0  0  0  0  0  0  0  0  0  0  0
    0.4940   15.9610   -4.6660 C   0  0  0  0  0  0  0  0  0  0  0  0
    2.3350   14.0760   -1.8760 S   0  0  0  0  0  0  0  0  0  0  0  0
   -0.4960   16.4530   -5.5720 O   0  0  0  0  0  0  0  0  0  0  0  0
   -0.3920   17.8230   -5.9380 C   0  0  0  0  0  0  0  0  0  0  0  0
   -1.3940   18.6170   -5.1290 C   0  0  0  0  0  0  0  0  0  0  0  0
    1.0370   18.2540   -5.6630 C   0  0  0  0  0  0  0  0  0  0  0  0
  1  2  1  0
  2  3  2  0
  4  2  1  1
  4  5  1  0
  4  6  1  0
  7  5  1  1
  6  8  2  0
  7  9  1  0
  8  9  1  0
  7 10  1  0
  7 11  1  0
  9 12  1  6
 10 13  2  0
 11 14  1  0
 10 15  1  0
 14 16  1  0
 14 17  1  0
 15 17  1  0
 16 18  1  0
 17 19  2  0
 18 20  1  0
 20 21  1  0
 21 22  1  0
 21 23  1  0
M  END
