mac-x0412-mac-x0321
     RDKit          3D

 15 16  0  0  0  0  0  0  0  0999 V2000
   -8.1510   15.0170   -0.5360 O   0  0  0  0  0  0  0  0  0  0  0  0
   -7.1770   14.7590    0.1550 C   0  0  0  0  0  0  0  0  0  0  0  0
   -7.2690   14.8040    1.5340 N   0  0  0  0  0  0  0  0  0  0  0  0
   -5.8120   14.3760   -0.4720 C   0  0  2  0  0  0  0  0  0  0  0  0
   -4.6450   14.7880    0.4090 C   0  0  0  0  0  0  0  0  0  0  0  0
   -6.1890   14.9590    2.2220 C   0  0  0  0  0  0  0  0  0  0  0  0
   -5.6330   14.8520   -1.8970 C   0  0  0  0  0  0  0  0  0  0  0  0
   -4.8230   15.0760    1.6980 C   0  0  0  0  0  0  0  0  0  0  0  0
   -3.3440   14.7950   -0.2390 C   0  0  0  0  0  0  0  0  0  0  0  0
   -4.4140   15.0830   -2.4020 C   0  0  0  0  0  0  0  0  0  0  0  0
   -2.0570   14.6130    0.9040 Cl  0  0  0  0  0  0  0  0  0  0  0  0
   -3.2280   14.9010   -1.5940 C   0  0  0  0  0  0  0  0  0  0  0  0
   -1.9430   14.8300   -2.3420 C   0  0  0  0  0  0  0  0  0  0  0  0
   -0.8730   14.7680   -1.5410 O   0  0  0  0  0  0  0  0  0  0  0  0
   -1.8420   14.8180   -3.5600 O   0  0  0  0  0  0  0  0  0  0  0  0
  1  2  2  0
  2  3  1  0
  2  4  1  0
  4  5  1  0
  3  6  2  0
  4  7  1  6
  5  8  2  0
  6  8  1  0
  5  9  1  0
  7 10  2  0
  9 11  1  0
  9 12  2  0
 10 12  1  0
 12 13  1  0
 13 14  1  0
 13 15  2  0
M  END
