mac-x0441-diamond-x0282_0_A
     RDKit          3D

 32 35  0  0  0  0  0  0  0  0999 V2000
    0.6090   10.8550   -3.6050 O   0  0  0  0  0  0  0  0  0  0  0  0
    0.4710   12.1840   -3.6020 C   0  0  0  0  0  0  0  0  0  0  0  0
    0.3620   12.8430   -2.5260 N   0  0  0  0  0  0  0  0  0  0  0  0
    0.4380   12.8010   -4.9670 C   0  0  0  0  0  0  0  0  0  0  0  0
    0.1500   14.2790   -2.4070 C   0  0  0  0  0  0  0  0  0  0  0  0
    0.1860   11.8180   -6.0030 N   0  0  0  0  0  0  0  0  0  0  0  0
    0.9530   11.8220   -7.1240 N   0  0  0  0  0  0  0  0  0  0  0  0
   -0.7620   10.8360   -6.0280 C   0  0  0  0  0  0  0  0  0  0  0  0
   -0.4360   14.4530   -1.0440 C   0  0  0  0  0  0  0  0  0  0  0  0
    0.4660   10.8130   -7.8840 C   0  0  0  0  0  0  0  0  0  0  0  0
   -0.6040   10.1740   -7.2250 C   0  0  0  0  0  0  0  0  0  0  0  0
   -1.7820   10.5080   -4.9990 C   0  0  0  0  0  0  0  0  0  0  0  0
   -1.7650   14.5320   -0.9200 N   0  0  0  0  0  0  0  0  0  0  0  0
    0.3950   14.4960   -0.0010 C   0  0  0  0  0  0  0  0  0  0  0  0
    0.9630   10.4010   -9.2500 C   0  0  0  0  0  0  0  0  0  0  0  0
   -1.4460    9.0270   -7.6550 C   0  0  0  0  0  0  0  0  0  0  0  0
   -2.9160    9.7120   -5.6710 C   0  0  0  0  0  0  0  0  0  0  0  0
   -0.1740   14.6030    1.2420 C   0  0  0  0  0  0  0  0  0  0  0  0
   -2.2640   14.6450    0.3210 C   0  0  0  0  0  0  0  0  0  0  0  0
    1.6440    9.2220   -9.2090 F   0  0  0  0  0  0  0  0  0  0  0  0
   -0.0800   10.1790  -10.0900 F   0  0  0  0  0  0  0  0  0  0  0  0
    1.7160   11.2910   -9.9240 F   0  0  0  0  0  0  0  0  0  0  0  0
   -2.3680    8.5430   -6.5160 C   0  0  0  0  0  0  0  0  0  0  0  0
   -3.6350   14.7370    0.4190 N   0  0  0  0  0  0  0  0  0  0  0  0
   -1.4980   14.6710    1.4340 N   0  0  0  0  0  0  0  0  0  0  0  0
   -4.1990   14.0110    1.5300 C   0  0  0  0  0  0  0  0  0  0  0  0
   -4.3540   14.6100   -0.8360 C   0  0  0  0  0  0  0  0  0  0  0  0
   -5.5890   14.5760    1.8160 C   0  0  0  0  0  0  0  0  0  0  0  0
   -5.7410   15.2180   -0.6630 C   0  0  0  0  0  0  0  0  0  0  0  0
   -6.4830   14.6720    0.5730 C   0  0  0  0  0  0  0  0  0  0  0  0
   -7.1990   13.3690    0.2920 C   0  0  0  0  0  0  0  0  0  0  0  0
   -8.5480   13.7030   -0.0190 O   0  0  0  0  0  0  0  0  0  0  0  0
  1  2  1  0
  2  3  2  3
  2  4  1  0
  3  5  1  0
  4  6  1  0
  6  7  1  0
  6  8  1  0
  5  9  1  0
  7 10  2  0
  8 11  2  0
 10 11  1  0
  8 12  1  0
  9 13  2  0
  9 14  1  0
 10 15  1  0
 11 16  1  0
 12 17  1  0
 14 18  2  0
 13 19  1  0
 15 20  1  0
 15 21  1  0
 15 22  1  0
 16 23  1  0
 17 23  1  0
 19 24  1  0
 18 25  1  0
 19 25  2  0
 24 26  1  0
 24 27  1  0
 26 28  1  0
 27 29  1  0
 28 30  1  0
 29 30  1  0
 30 31  1  0
 31 32  1  0
M  END
