mac-x0451-diamond-x0967_0_A
     RDKit          3D

 11 12  0  0  0  0  0  0  0  0999 V2000
   -6.2900   14.6350    3.1360 N   0  0  0  0  0  0  0  0  0  0  0  0
   -5.5530   14.7050    2.0120 C   0  0  0  0  0  0  0  0  0  0  0  0
   -6.0770   14.8730    0.8250 N   0  0  0  0  0  0  0  0  0  0  0  0
   -3.8470   14.5790    2.0590 S   0  0  0  0  0  0  0  0  0  0  0  0
   -5.0820   14.9090   -0.1410 C   0  0  0  0  0  0  0  0  0  0  0  0
   -3.7820   14.7570    0.3490 C   0  0  0  0  0  0  0  0  0  0  0  0
   -5.2770   15.0800   -1.5280 C   0  0  0  0  0  0  0  0  0  0  0  0
   -2.6700   14.7630   -0.5030 C   0  0  0  0  0  0  0  0  0  0  0  0
   -4.1730   15.0880   -2.3860 C   0  0  0  0  0  0  0  0  0  0  0  0
   -2.8970   14.9280   -1.8660 C   0  0  0  0  0  0  0  0  0  0  0  0
   -1.8510   14.9310   -2.7050 F   0  0  0  0  0  0  0  0  0  0  0  0
  1  2  1  0
  2  3  2  0
  2  4  1  0
  3  5  1  0
  4  6  1  0
  5  6  2  0
  5  7  1  0
  6  8  1  0
  7  9  2  0
  8 10  2  0
  9 10  1  0
 10 11  1  0
M  END
