mac-x0397-mac-x0412
     RDKit          3D

 12 13  0  0  0  0  0  0  0  0999 V2000
   -6.6480   15.0860   -2.6630 Cl  0  0  0  0  0  0  0  0  0  0  0  0
   -5.1110   14.9810   -1.9550 C   0  0  0  0  0  0  0  0  0  0  0  0
   -5.0560   14.8890   -0.5840 C   0  0  0  0  0  0  0  0  0  0  0  0
   -3.9430   14.9810   -2.7120 C   0  0  0  0  0  0  0  0  0  0  0  0
   -6.0710   14.8720    0.3100 N   0  0  0  0  0  0  0  0  0  0  0  0
   -3.8130   14.7940    0.0560 C   0  0  0  0  0  0  0  0  0  0  0  0
   -2.7100   14.8840   -2.0820 C   0  0  0  0  0  0  0  0  0  0  0  0
   -7.3300   14.9320    0.1350 O   0  0  0  0  0  0  0  0  0  0  0  0
   -5.5830   14.7660    1.6990 C   0  0  0  0  0  0  0  0  0  0  0  0
   -3.8750   14.6850    1.7770 S   0  0  0  0  0  0  0  0  0  0  0  0
   -2.6280   14.7910   -0.6950 C   0  0  0  0  0  0  0  0  0  0  0  0
   -6.4500   14.7340    2.9120 N   0  0  0  0  0  0  0  0  0  0  0  0
  1  2  1  0
  2  3  2  0
  2  4  1  0
  3  5  1  0
  3  6  1  0
  4  7  2  0
  5  8  1  0
  5  9  2  0
  6 10  1  0
  9 10  1  0
  6 11  2  0
  7 11  1  0
  9 12  1  0
M  CHG  2   5   1   8  -1
M  END
