mac-x0115-diamond-x0587_0_A
     RDKit          3D

 29 31  0  0  0  0  0  0  0  0999 V2000
   -1.4070   18.6140   -5.1530 C   0  0  0  0  0  0  0  0  0  0  0  0
   -0.4070   17.6820   -5.8080 C   0  0  0  0  0  0  0  0  0  0  0  0
    1.0140   18.1770   -5.6110 C   0  0  0  0  0  0  0  0  0  0  0  0
   -0.5910   16.4030   -5.2000 O   0  0  0  0  0  0  0  0  0  0  0  0
    0.6150   15.7530   -4.7760 C   0  0  0  0  0  0  0  0  0  0  0  0
    0.2290   14.5270   -3.9410 C   0  0  0  0  0  0  0  0  0  0  0  0
    0.0690   14.8490   -2.4940 N   0  0  0  0  0  0  0  0  0  0  0  0
    1.0620   14.4370   -1.5920 C   0  0  0  0  0  0  0  0  0  0  0  0
   -1.2150   14.9650   -1.9790 C   0  0  0  0  0  0  0  0  0  0  0  0
    2.6180   13.9470   -1.9850 S   0  0  0  0  0  0  0  0  0  0  0  0
    0.7190   14.4290   -0.2470 N   0  0  0  0  0  0  0  0  0  0  0  0
   -1.3960   15.4960   -0.6090 C   0  0  2  0  0  0  0  0  0  0  0  0
   -2.3780   14.6670   -2.5290 C   0  0  0  0  0  0  0  0  0  0  0  0
   -0.4970   14.7550    0.3390 C   0  0  0  0  0  0  0  0  0  0  0  0
   -2.8460   15.4140   -0.3270 N   0  0  0  0  0  0  0  0  0  0  0  0
   -3.3390   14.9420   -1.4450 C   0  0  0  0  0  0  0  0  0  0  0  0
   -0.7760   14.4670    1.5000 O   0  0  0  0  0  0  0  0  0  0  0  0
   -4.8010   14.6190   -1.7120 C   0  0  0  0  0  0  0  0  0  0  0  0
   -4.9020   13.3920   -2.3080 F   0  0  0  0  0  0  0  0  0  0  0  0
   -5.2760   15.4460   -2.6760 F   0  0  0  0  0  0  0  0  0  0  0  0
   -5.6580   14.6560   -0.4500 C   0  0  0  0  0  0  0  0  0  0  0  0
   -5.1310   14.9560    0.7270 N   0  0  0  0  0  0  0  0  0  0  0  0
   -6.9500   14.3840   -0.5780 N   0  0  0  0  0  0  0  0  0  0  0  0
   -5.9750   14.9880    1.7910 C   0  0  0  0  0  0  0  0  0  0  0  0
   -7.7420   14.4320    0.5080 C   0  0  0  0  0  0  0  0  0  0  0  0
   -7.3140   14.7400    1.7390 C   0  0  0  0  0  0  0  0  0  0  0  0
   -8.1760   14.8230    2.9280 C   0  0  0  0  0  0  0  0  0  0  0  0
   -7.6000   14.7900    4.1560 N   0  0  0  0  0  0  0  0  0  0  0  0
   -9.3920   14.9380    2.8030 O   0  0  0  0  0  0  0  0  0  0  0  0
  1  2  1  0
  2  3  1  0
  2  4  1  0
  4  5  1  0
  5  6  1  0
  6  7  1  0
  7  8  1  0
  7  9  1  0
  8 10  2  0
  8 11  1  0
  9 12  1  0
  9 13  2  0
 11 14  1  0
 12 14  1  0
 12 15  1  1
 13 16  1  0
 15 16  2  0
 14 17  2  0
 16 18  1  0
 18 19  1  0
 18 20  1  0
 18 21  1  0
 21 22  2  0
 21 23  1  0
 22 24  1  0
 23 25  2  0
 24 26  2  0
 25 26  1  0
 26 27  1  0
 27 28  1  0
 27 29  2  0
M  END
