mac-x0115-diamond-x0926_0_A
     RDKit          3D

 22 24  0  0  0  0  0  0  0  0999 V2000
   -1.4330   18.6130   -5.2180 C   0  0  0  0  0  0  0  0  0  0  0  0
   -0.4240   17.6350   -5.7810 C   0  0  0  0  0  0  0  0  0  0  0  0
    0.9980   18.1040   -5.5340 C   0  0  0  0  0  0  0  0  0  0  0  0
   -0.5760   16.3420   -5.1750 O   0  0  0  0  0  0  0  0  0  0  0  0
    0.6320   15.7400   -4.6850 C   0  0  0  0  0  0  0  0  0  0  0  0
    0.2680   14.4340   -3.9670 C   0  0  0  0  0  0  0  0  0  0  0  0
    0.0090   14.5650   -2.5050 N   0  0  0  0  0  0  0  0  0  0  0  0
    1.0100   14.2990   -1.5830 C   0  0  0  0  0  0  0  0  0  0  0  0
   -1.1870   15.3300   -2.1140 C   0  0  2  0  0  0  0  0  0  0  0  0
    2.6120   13.9810   -1.9500 S   0  0  0  0  0  0  0  0  0  0  0  0
    0.6480   14.2880   -0.2590 N   0  0  0  0  0  0  0  0  0  0  0  0
   -1.3960   15.6000   -0.5970 C   0  0  2  0  0  0  0  0  0  0  0  0
   -2.5250   14.7140   -2.5720 C   0  0  0  0  0  0  0  0  0  0  0  0
   -0.5140   14.7460    0.3000 C   0  0  0  0  0  0  0  0  0  0  0  0
   -2.8230   15.3230   -0.3690 N   0  0  0  0  0  0  0  0  0  0  0  0
   -3.5040   15.3830   -1.6310 C   0  0  2  0  0  0  0  0  0  0  0  0
   -0.8190   14.4860    1.4700 O   0  0  0  0  0  0  0  0  0  0  0  0
   -3.5100   15.3610    0.8210 C   0  0  0  0  0  0  0  0  0  0  0  0
   -4.7870   14.7770   -1.5210 N   0  0  0  0  0  0  0  0  0  0  0  0
   -4.8340   15.1980    0.8750 C   0  0  0  0  0  0  0  0  0  0  0  0
   -5.5520   14.9680   -0.4000 C   0  0  0  0  0  0  0  0  0  0  0  0
   -6.7770   14.9270   -0.4590 O   0  0  0  0  0  0  0  0  0  0  0  0
  1  2  1  0
  2  3  1  0
  2  4  1  0
  4  5  1  0
  5  6  1  0
  6  7  1  0
  7  8  1  0
  7  9  1  0
  8 10  2  0
  8 11  1  0
  9 12  1  0
  9 13  1  1
 11 14  1  0
 12 14  1  1
 12 15  1  0
 16 13  1  6
 15 16  1  0
 14 17  2  0
 15 18  1  0
 16 19  1  0
 18 20  2  0
 19 21  1  0
 20 21  1  0
 21 22  2  0
M  END
