mac-x0226-mac-x0163
     RDKit          3D

 31 35  0  0  0  0  0  0  0  0999 V2000
    1.3610   12.3720   -2.0710 O   0  0  0  0  0  0  0  0  0  0  0  0
    0.3490   11.6370   -2.7460 C   0  0  0  0  0  0  0  0  0  0  0  0
    0.4870   10.3040   -2.2850 O   0  0  0  0  0  0  0  0  0  0  0  0
    0.5660   11.6900   -4.2200 C   0  0  0  0  0  0  0  0  0  0  0  0
   -1.0110   12.1770   -2.3170 C   0  0  1  0  0  0  0  0  0  0  0  0
    1.4580   12.4900   -4.9800 C   0  0  0  0  0  0  0  0  0  0  0  0
   -0.0780   10.9380   -5.1730 C   0  0  0  0  0  0  0  0  0  0  0  0
   -1.7370   13.3430   -3.1220 C   0  0  1  0  0  0  0  0  0  0  0  0
   -2.2530   11.3140   -2.6680 C   0  0  0  0  0  0  0  0  0  0  0  0
    1.3760   12.2490   -6.2910 N   0  0  0  0  0  0  0  0  0  0  0  0
    0.4200   11.2800   -6.3990 N   0  0  0  0  0  0  0  0  0  0  0  0
   -1.6050   13.4480   -4.6410 C   0  0  0  0  0  0  0  0  0  0  0  0
   -3.0480   12.6250   -2.6450 C   0  0  0  0  0  0  0  0  0  0  0  0
   -1.5810   14.6670   -2.4490 N   0  0  0  0  0  0  0  0  0  0  0  0
    0.0270   10.7180   -7.6380 C   0  0  0  0  0  0  0  0  0  0  0  0
   -1.5650   14.7290   -1.0150 C   0  0  0  0  0  0  0  0  0  0  0  0
   -0.5140   15.5900   -2.9290 C   0  0  0  0  0  0  0  0  0  0  0  0
   -0.3550   14.2360   -4.9940 C   0  0  0  0  0  0  0  0  0  0  0  0
   -1.1220    9.9350   -7.7400 C   0  0  0  0  0  0  0  0  0  0  0  0
    0.7890   10.9350   -8.7790 C   0  0  0  0  0  0  0  0  0  0  0  0
   -2.7400   15.0610   -0.3600 C   0  0  0  0  0  0  0  0  0  0  0  0
   -0.4250   14.4630   -0.3460 N   0  0  0  0  0  0  0  0  0  0  0  0
   -0.4440   15.6410   -4.4470 C   0  0  0  0  0  0  0  0  0  0  0  0
   -4.1890   15.4030   -1.2270 Cl  0  0  0  0  0  0  0  0  0  0  0  0
   -1.4840    9.3900   -8.9740 C   0  0  0  0  0  0  0  0  0  0  0  0
    0.4370   10.4000  -10.0060 C   0  0  0  0  0  0  0  0  0  0  0  0
   -2.7010   15.1060    1.0300 C   0  0  0  0  0  0  0  0  0  0  0  0
   -0.4980   14.5290    0.9930 C   0  0  0  0  0  0  0  0  0  0  0  0
   -3.8450   15.4450    1.7820 N   0  0  0  0  0  0  0  0  0  0  0  0
   -0.7040    9.6220  -10.1080 C   0  0  0  0  0  0  0  0  0  0  0  0
   -1.5830   14.8320    1.7100 N   0  0  0  0  0  0  0  0  0  0  0  0
  2  1  1  0
  2  3  1  0
  2  4  1  0
  5  2  1  6
  4  6  1  0
  4  7  2  0
  5  8  1  0
  5  9  1  0
  6 10  2  0
  7 11  1  0
 10 11  1  0
  8 12  1  6
  8 13  1  0
  9 13  1  0
  8 14  1  0
 11 15  1  0
 14 16  1  0
 14 17  1  0
 12 18  1  0
 15 19  2  0
 15 20  1  0
 16 21  2  0
 16 22  1  0
 17 23  1  0
 18 23  1  0
 21 24  1  0
 19 25  1  0
 20 26  2  0
 21 27  1  0
 22 28  2  0
 27 29  1  0
 25 30  2  0
 26 30  1  0
 27 31  2  0
 28 31  1  0
M  END
