mac-x0437-diamond-x0864_0_A
     RDKit          3D

 16 17  0  0  0  0  0  0  0  0999 V2000
    1.2400   13.3060   -2.3920 O   0  0  0  0  0  0  0  0  0  0  0  0
    1.1710   12.3410   -3.3220 C   0  0  0  0  0  0  0  0  0  0  0  0
    0.8500   11.2200   -2.9840 O   0  0  0  0  0  0  0  0  0  0  0  0
    1.5140   12.8300   -4.7110 C   0  0  0  0  0  0  0  0  0  0  0  0
    0.2850   13.0670   -5.5930 C   0  0  0  0  0  0  0  0  0  0  0  0
   -0.4260   11.8710   -6.0260 N   0  0  0  0  0  0  0  0  0  0  0  0
   -0.9910   10.9480   -5.1700 C   0  0  0  0  0  0  0  0  0  0  0  0
   -0.0910   10.9770   -7.0420 C   0  0  0  0  0  0  0  0  0  0  0  0
   -0.6630   10.8320   -4.0420 O   0  0  0  0  0  0  0  0  0  0  0  0
   -1.8970   10.2340   -6.0080 N   0  0  0  0  0  0  0  0  0  0  0  0
   -1.0350    9.9630   -7.0110 C   0  0  0  0  0  0  0  0  0  0  0  0
    0.9050   10.9390   -7.9470 C   0  0  0  0  0  0  0  0  0  0  0  0
   -2.9780    8.7960   -5.6130 Br  0  0  0  0  0  0  0  0  0  0  0  0
   -1.0440    8.8920   -7.8570 C   0  0  0  0  0  0  0  0  0  0  0  0
    0.9400    9.8610   -8.8360 C   0  0  0  0  0  0  0  0  0  0  0  0
   -0.0280    8.8450   -8.7910 C   0  0  0  0  0  0  0  0  0  0  0  0
  1  2  1  0
  2  3  2  0
  2  4  1  0
  4  5  1  0
  5  6  1  0
  6  7  1  0
  6  8  1  0
  7  9  2  0
  7 10  1  0
  8 11  2  0
 10 11  1  0
  8 12  1  0
 10 13  1  0
 11 14  1  0
 12 15  2  0
 14 16  2  0
 15 16  1  0
M  END
