mac-x0588-mac-x0123
     RDKit          3D

 25 30  0  0  0  0  0  0  0  0999 V2000
   -1.2700   15.0880   -3.5130 C   0  0  0  0  0  0  0  0  0  0  0  0
   -1.9850   14.7990   -2.2490 N   0  0  0  0  0  0  0  0  0  0  0  0
   -3.3210   15.4220   -2.0120 C   0  0  0  0  0  0  0  0  0  0  0  0
   -0.6140   16.4750   -3.6890 C   0  0  2  0  0  0  0  0  0  0  0  0
   -1.2130   14.5500   -1.0470 C   0  0  2  0  0  0  0  0  0  0  0  0
   -1.5560   17.4180   -4.2900 O   0  0  0  0  0  0  0  0  0  0  0  0
    0.5980   16.4230   -4.6210 C   0  0  0  0  0  0  0  0  0  0  0  0
   -4.1530   14.7780   -0.8400 C   0  0  2  0  0  0  0  0  0  0  0  0
   -1.9980   15.0140    0.1490 C   0  0  1  0  0  0  0  0  0  0  0  0
   -0.0130   15.2660   -0.7710 N   0  0  0  0  0  0  0  0  0  0  0  0
    0.5940   17.7930   -5.2450 C   0  0  0  0  0  0  0  0  0  0  0  0
   -0.8880   18.0900   -5.3670 C   0  0  0  0  0  0  0  0  0  0  0  0
   -3.1670   14.1130    0.1370 C   0  0  1  0  0  0  0  0  0  0  0  0
   -1.1090   14.8480    1.2800 N   0  0  0  0  0  0  0  0  0  0  0  0
    0.1810   14.8660    0.6160 C   0  0  0  0  0  0  0  0  0  0  0  0
   -5.3140   13.9030   -1.4010 C   0  0  0  0  0  0  0  0  0  0  0  0
   -4.7250   15.7590    0.1720 C   0  0  0  0  0  0  0  0  0  0  0  0
   -4.9950   14.8760    1.4220 C   0  0  2  0  0  0  0  0  0  0  0  0
   -6.6710   14.4050   -1.1520 N   0  0  0  0  0  0  0  0  0  0  0  0
   -3.8460   13.8640    1.4590 C   0  0  0  0  0  0  0  0  0  0  0  0
   -7.2260   14.1000    0.1690 C   0  0  1  0  0  0  0  0  0  0  0  0
   -6.3430   14.1620    1.4390 C   0  0  2  0  0  0  0  0  0  0  0  0
   -7.2730   14.6610    2.4990 C   0  0  0  0  0  0  0  0  0  0  0  0
   -8.5960   14.6950    0.5510 C   0  0  0  0  0  0  0  0  0  0  0  0
   -8.4860   14.9360    2.0230 C   0  0  0  0  0  0  0  0  0  0  0  0
  1  2  1  0
  2  3  1  0
  4  1  1  6
  2  5  1  0
  4  6  1  0
  4  7  1  0
  8  3  1  6
  5  9  1  0
  5 10  1  6
  7 11  1  0
  6 12  1  0
 11 12  1  0
  8 13  1  0
  9 13  1  0
  9 14  1  1
 10 15  1  0
 14 15  1  0
  8 16  1  0
  8 17  1  0
 17 18  1  0
 16 19  1  0
 13 20  1  1
 18 20  1  6
 19 21  1  0
 18 22  1  0
 21 22  1  0
 22 23  1  1
 21 24  1  1
 23 25  2  0
 24 25  1  0
M  END
