mac-x0282-mac-x0375
     RDKit          3D

 22 24  0  0  0  0  0  0  0  0999 V2000
    1.6510   12.6380   -2.5660 O   0  0  0  0  0  0  0  0  0  0  0  0
    1.0940   11.8470   -3.5030 C   0  0  0  0  0  0  0  0  0  0  0  0
    0.5070   10.8140   -3.2260 O   0  0  0  0  0  0  0  0  0  0  0  0
    1.1940   13.9850   -2.4700 C   0  0  0  0  0  0  0  0  0  0  0  0
    1.3280   12.3740   -4.9230 C   0  0  0  0  0  0  0  0  0  0  0  0
    1.2900   14.4420   -1.0290 C   0  0  0  0  0  0  0  0  0  0  0  0
    0.4700   12.0200   -6.0140 O   0  0  0  0  0  0  0  0  0  0  0  0
   -0.0430   14.6060   -0.3490 C   0  0  0  0  0  0  0  0  0  0  0  0
   -1.1530   14.8780   -1.1440 C   0  0  0  0  0  0  0  0  0  0  0  0
   -0.2440   14.4970    1.0420 C   0  0  0  0  0  0  0  0  0  0  0  0
   -0.4730   11.0180   -6.0420 C   0  0  0  0  0  0  0  0  0  0  0  0
   -2.3890   15.0420   -0.5160 C   0  0  0  0  0  0  0  0  0  0  0  0
   -1.4190   14.6430    1.6920 N   0  0  0  0  0  0  0  0  0  0  0  0
   -0.2840    9.7360   -6.5330 C   0  0  0  0  0  0  0  0  0  0  0  0
   -1.7330   11.3470   -5.5440 C   0  0  0  0  0  0  0  0  0  0  0  0
   -3.7060   15.3230   -0.9410 C   0  0  0  0  0  0  0  0  0  0  0  0
   -2.4290   14.9060    0.8620 C   0  0  0  0  0  0  0  0  0  0  0  0
   -1.3170    8.8020   -6.5200 C   0  0  0  0  0  0  0  0  0  0  0  0
   -2.7710   10.4100   -5.5340 C   0  0  0  0  0  0  0  0  0  0  0  0
   -4.4970   15.3570    0.1800 C   0  0  0  0  0  0  0  0  0  0  0  0
   -3.7080   15.1030    1.2620 N   0  0  0  0  0  0  0  0  0  0  0  0
   -2.5640    9.1360   -6.0230 C   0  0  0  0  0  0  0  0  0  0  0  0
  1  2  1  0
  2  3  2  0
  1  4  1  0
  2  5  1  0
  4  6  1  0
  5  7  1  0
  6  8  1  0
  8  9  2  0
  8 10  1  0
  7 11  1  0
  9 12  1  0
 10 13  2  0
 11 14  2  0
 11 15  1  0
 12 16  1  0
 12 17  2  0
 13 17  1  0
 14 18  1  0
 15 19  2  0
 16 20  2  0
 17 21  1  0
 20 21  1  0
 18 22  2  0
 19 22  1  0
M  END
