mac-x0284-mac-x0358
     RDKit          3D

 20 21  0  0  0  0  0  0  0  0999 V2000
   -4.0450   15.4480    0.9620 C   0  0  0  0  0  0  0  0  0  0  0  0
   -3.5440   15.2030   -0.4290 C   0  0  0  0  0  0  0  0  0  0  0  0
   -4.4240   15.2420   -1.5150 C   0  0  0  0  0  0  0  0  0  0  0  0
   -2.1870   14.9420   -0.6400 C   0  0  0  0  0  0  0  0  0  0  0  0
   -1.6990   14.7320   -1.9330 C   0  0  0  0  0  0  0  0  0  0  0  0
   -3.9520   15.0200   -2.8020 C   0  0  0  0  0  0  0  0  0  0  0  0
   -0.2270   14.4950   -2.0850 C   0  0  0  0  0  0  0  0  0  0  0  0
   -2.6040   14.7680   -3.0050 C   0  0  0  0  0  0  0  0  0  0  0  0
   -2.1830   14.5590   -4.2650 O   0  0  0  0  0  0  0  0  0  0  0  0
    0.4620   14.7020   -1.0910 O   0  0  0  0  0  0  0  0  0  0  0  0
    0.2740   14.0620   -3.3180 N   0  0  0  0  0  0  0  0  0  0  0  0
    1.1450   12.9650   -3.1930 C   0  0  0  0  0  0  0  0  0  0  0  0
   -0.7280   13.8930   -4.3270 C   0  0  0  0  0  0  0  0  0  0  0  0
    0.8760   11.8090   -2.8340 O   0  0  0  0  0  0  0  0  0  0  0  0
   -0.8900   12.5910   -4.7510 C   0  0  0  0  0  0  0  0  0  0  0  0
   -1.5600   14.8930   -4.9030 C   0  0  0  0  0  0  0  0  0  0  0  0
   -1.8250   12.2500   -5.6880 C   0  0  0  0  0  0  0  0  0  0  0  0
   -2.5310   14.5320   -5.8660 C   0  0  0  0  0  0  0  0  0  0  0  0
   -1.9390   10.9510   -6.0590 O   0  0  0  0  0  0  0  0  0  0  0  0
   -2.6580   13.2010   -6.2550 C   0  0  0  0  0  0  0  0  0  0  0  0
  1  2  1  0
  2  3  2  0
  2  4  1  0
  4  5  2  0
  3  6  1  0
  5  7  1  0
  5  8  1  0
  6  8  2  0
  8  9  1  0
  7 10  2  0
  7 11  1  0
 11 12  1  0
 11 13  1  0
 12 14  2  0
 13 15  2  0
 13 16  1  0
 15 17  1  0
 16 18  2  0
 17 19  1  0
 17 20  2  0
 18 20  1  0
M  END
