mac-x0347-diamond-x0844_0_A
     RDKit          3D

 17 18  0  0  0  0  0  0  0  0999 V2000
    1.3760   14.5890   -3.3470 O   0  0  0  0  0  0  0  0  0  0  0  0
    0.5240   14.1130   -2.4250 C   0  0  0  0  0  0  0  0  0  0  0  0
    0.9170   13.4280   -1.5070 O   0  0  0  0  0  0  0  0  0  0  0  0
   -0.8720   14.5260   -2.6660 C   0  0  0  0  0  0  0  0  0  0  0  0
   -1.7450   14.7270   -1.5870 C   0  0  0  0  0  0  0  0  0  0  0  0
   -1.3580   14.7300   -3.9490 C   0  0  0  0  0  0  0  0  0  0  0  0
   -3.0720   15.1310   -1.8340 C   0  0  0  0  0  0  0  0  0  0  0  0
   -2.6280   15.1100   -4.2240 N   0  0  0  0  0  0  0  0  0  0  0  0
   -3.4400   15.2970   -3.1660 C   0  0  0  0  0  0  0  0  0  0  0  0
   -4.1330   15.4060   -0.7880 C   0  0  2  0  0  0  0  0  0  0  0  0
   -3.6760   15.5120    0.6500 C   0  0  0  0  0  0  0  0  0  0  0  0
   -5.3250   14.5170   -1.0590 C   0  0  1  0  0  0  0  0  0  0  0  0
   -4.6450   12.8070   -1.6880 Br  0  0  0  0  0  0  0  0  0  0  0  0
   -4.3590   15.0040    1.6650 C   0  0  0  0  0  0  0  0  0  0  0  0
   -6.2490   14.3660    0.1350 C   0  0  0  0  0  0  0  0  0  0  0  0
   -7.4780   14.3640   -0.0210 O   0  0  0  0  0  0  0  0  0  0  0  0
   -5.6500   14.2530    1.5220 C   0  0  0  0  0  0  0  0  0  0  0  0
  1  2  1  0
  2  3  2  0
  2  4  1  0
  4  5  2  0
  4  6  1  0
  5  7  1  0
  6  8  2  0
  7  9  2  0
  8  9  1  0
 10  7  1  6
 10 11  1  0
 10 12  1  0
 12 13  1  1
 11 14  2  0
 12 15  1  0
 15 16  2  0
 14 17  1  0
 15 17  1  0
M  END
