mac-x0404-mac-x0226
     RDKit          3D

 26 29  0  0  0  0  0  0  0  0999 V2000
    1.3150   11.9030   -1.8660 O   0  0  0  0  0  0  0  0  0  0  0  0
    0.7680   12.4880   -3.0080 C   0  0  0  0  0  0  0  0  0  0  0  0
   -0.6150   12.3430   -2.7770 O   0  0  0  0  0  0  0  0  0  0  0  0
    1.1950   13.9440   -3.0630 C   0  0  0  0  0  0  0  0  0  0  0  0
    1.1040   11.7120   -4.2630 C   0  0  2  0  0  0  0  0  0  0  0  0
    1.0110   14.3650   -4.3900 O   0  0  0  0  0  0  0  0  0  0  0  0
    2.1550   12.3870   -5.1540 C   0  0  0  0  0  0  0  0  0  0  0  0
   -0.0850   11.5150   -5.2190 C   0  0  0  0  0  0  0  0  0  0  0  0
   -0.2510   14.7440   -4.7110 C   0  0  0  0  0  0  0  0  0  0  0  0
    1.8620   11.9960   -6.5310 N   0  0  0  0  0  0  0  0  0  0  0  0
    0.5340   11.5630   -6.5420 N   0  0  0  0  0  0  0  0  0  0  0  0
   -0.3530   16.0830   -5.0560 C   0  0  0  0  0  0  0  0  0  0  0  0
   -1.3810   13.9250   -4.7120 C   0  0  0  0  0  0  0  0  0  0  0  0
    0.0600   10.8770   -7.6730 C   0  0  0  0  0  0  0  0  0  0  0  0
   -1.6000   16.6220   -5.4110 C   0  0  0  0  0  0  0  0  0  0  0  0
   -2.6180   14.4500   -5.0620 C   0  0  0  0  0  0  0  0  0  0  0  0
    0.7750   16.9050   -5.0590 C   0  0  0  0  0  0  0  0  0  0  0  0
   -1.1310   10.1370   -7.6710 C   0  0  0  0  0  0  0  0  0  0  0  0
    0.7670   10.8980   -8.8770 C   0  0  0  0  0  0  0  0  0  0  0  0
   -2.7300   15.7960   -5.4090 C   0  0  0  0  0  0  0  0  0  0  0  0
   -1.6830   17.9730   -5.7620 C   0  0  0  0  0  0  0  0  0  0  0  0
    0.6910   18.2390   -5.4090 C   0  0  0  0  0  0  0  0  0  0  0  0
   -1.5710    9.4600   -8.8130 C   0  0  0  0  0  0  0  0  0  0  0  0
    0.3440   10.2350  -10.0180 C   0  0  0  0  0  0  0  0  0  0  0  0
   -0.5440   18.7710   -5.7630 C   0  0  0  0  0  0  0  0  0  0  0  0
   -0.8320    9.5090   -9.9890 C   0  0  0  0  0  0  0  0  0  0  0  0
  2  1  1  0
  2  3  1  0
  2  4  1  0
  5  2  1  1
  4  6  1  0
  5  7  1  0
  5  8  1  0
  6  9  1  0
  7 10  1  0
  8 11  1  0
 10 11  1  0
  9 12  1  0
  9 13  2  0
 11 14  1  0
 12 15  2  0
 13 16  1  0
 12 17  1  0
 14 18  2  0
 14 19  1  0
 15 20  1  0
 16 20  2  0
 15 21  1  0
 17 22  2  0
 18 23  1  0
 19 24  2  0
 21 25  2  0
 22 25  1  0
 23 26  2  0
 24 26  1  0
M  END
