mac-x0398-mac-x0417
     RDKit          3D

 26 28  0  0  0  0  0  0  0  0999 V2000
   -6.1240   14.9850    2.0610 N   0  0  0  0  0  0  0  0  0  0  0  0
   -5.4050   15.0240    0.8630 C   0  0  0  0  0  0  0  0  0  0  0  0
   -4.0070   14.9620    0.8410 C   0  0  0  0  0  0  0  0  0  0  0  0
   -6.0890   15.1300   -0.3390 C   0  0  0  0  0  0  0  0  0  0  0  0
   -5.4050   15.1720   -1.5480 C   0  0  0  0  0  0  0  0  0  0  0  0
   -3.3080   15.0020   -0.3820 C   0  0  0  0  0  0  0  0  0  0  0  0
   -6.2020   15.2740   -2.6540 O   0  0  0  0  0  0  0  0  0  0  0  0
   -4.0080   15.1070   -1.6000 C   0  0  0  0  0  0  0  0  0  0  0  0
   -3.2760   15.1460   -2.9140 C   0  0  0  0  0  0  0  0  0  0  0  0
   -3.8680   15.4160   -3.9430 O   0  0  0  0  0  0  0  0  0  0  0  0
   -1.9350   14.8640   -2.8970 O   0  0  0  0  0  0  0  0  0  0  0  0
   -1.3010   14.9970   -4.2140 C   0  0  0  0  0  0  0  0  0  0  0  0
   -0.0130   14.1640   -4.4450 C   0  0  0  0  0  0  0  0  0  0  0  0
   -0.1610   12.6240   -4.3090 C   0  0  2  0  0  0  0  0  0  0  0  0
    0.6870   11.9850   -3.2250 C   0  0  0  0  0  0  0  0  0  0  0  0
    0.0170   11.7770   -5.5570 C   0  0  0  0  0  0  0  0  0  0  0  0
    1.3830   12.8310   -2.4440 O   0  0  0  0  0  0  0  0  0  0  0  0
    0.7580   10.7850   -3.0210 O   0  0  0  0  0  0  0  0  0  0  0  0
    1.0580   11.8790   -6.4030 N   0  0  0  0  0  0  0  0  0  0  0  0
   -0.8790   10.7640   -5.9820 C   0  0  0  0  0  0  0  0  0  0  0  0
    0.8360   10.9230   -7.3970 O   0  0  0  0  0  0  0  0  0  0  0  0
   -0.3210   10.2600   -7.1390 C   0  0  0  0  0  0  0  0  0  0  0  0
   -2.0880   10.2270   -5.5170 C   0  0  0  0  0  0  0  0  0  0  0  0
   -0.8870    9.2300   -7.8920 C   0  0  0  0  0  0  0  0  0  0  0  0
   -2.6850    9.1940   -6.2450 C   0  0  0  0  0  0  0  0  0  0  0  0
   -2.0950    8.7040   -7.4120 C   0  0  0  0  0  0  0  0  0  0  0  0
  1  2  1  0
  2  3  2  0
  2  4  1  0
  4  5  2  0
  3  6  1  0
  5  7  1  0
  5  8  1  0
  6  8  2  0
  8  9  1  0
  9 10  2  0
  9 11  1  0
 11 12  1  0
 12 13  1  0
 14 13  1  6
 14 15  1  0
 14 16  1  0
 15 17  1  0
 15 18  2  0
 16 19  2  0
 16 20  1  0
 19 21  1  0
 20 22  2  0
 21 22  1  0
 20 23  1  0
 22 24  1  0
 23 25  2  0
 24 26  2  0
 25 26  1  0
M  END
