mac-x0301-mac-x0584
     RDKit          3D

 20 23  0  0  0  0  0  0  0  0999 V2000
   -0.6330   14.2240   -3.7230 O   0  0  0  0  0  0  0  0  0  0  0  0
   -1.9740   14.3080   -3.7160 C   0  0  0  0  0  0  0  0  0  0  0  0
   -2.5900   14.2350   -4.7470 O   0  0  0  0  0  0  0  0  0  0  0  0
   -2.4580   14.4970   -2.3310 C   0  0  0  0  0  0  0  0  0  0  0  0
   -1.5580   14.7810   -1.3810 C   0  0  0  0  0  0  0  0  0  0  0  0
   -3.7990   14.4110   -1.9660 C   0  0  0  0  0  0  0  0  0  0  0  0
   -1.9190   14.9770   -0.0520 C   0  0  0  0  0  0  0  0  0  0  0  0
   -4.1820   14.6170   -0.6240 C   0  0  0  0  0  0  0  0  0  0  0  0
   -0.1570   14.9800   -1.5730 C   0  0  1  0  0  0  0  0  0  0  0  0
   -3.2280   14.9010    0.3560 C   0  0  0  0  0  0  0  0  0  0  0  0
   -0.8680   15.2560    0.7830 O   0  0  0  0  0  0  0  0  0  0  0  0
    0.2640   14.8880   -0.0500 C   0  0  0  0  0  0  0  0  0  0  0  0
    0.6740   14.3150   -2.7400 C   0  0  1  0  0  0  0  0  0  0  0  0
   -0.4870   16.3280   -2.1930 C   0  0  0  0  0  0  0  0  0  0  0  0
    0.1570   13.0520   -3.3780 C   0  0  0  0  0  0  0  0  0  0  0  0
    0.7950   15.3390   -3.9020 C   0  0  0  0  0  0  0  0  0  0  0  0
   -0.3670   16.2750   -3.7140 C   0  0  0  0  0  0  0  0  0  0  0  0
    1.2890   12.0530   -3.6230 C   0  0  0  0  0  0  0  0  0  0  0  0
   -0.5370   11.9680   -2.5250 C   0  0  0  0  0  0  0  0  0  0  0  0
    0.2490   10.9430   -3.3470 C   0  0  0  0  0  0  0  0  0  0  0  0
  1  2  1  0
  2  3  2  0
  2  4  1  0
  4  5  2  0
  4  6  1  0
  5  7  1  0
  6  8  2  0
  5  9  1  0
  7 10  2  0
  8 10  1  0
  7 11  1  0
  9 12  1  1
 11 12  1  0
  9 13  1  0
  9 14  1  0
 13 15  1  6
 13 16  1  0
 14 17  1  0
 16 17  1  0
 15 18  1  0
 15 19  1  0
 18 20  1  0
 19 20  1  0
M  END
