mac-x0361-mac-x0338
     RDKit          3D

 11 11  0  0  0  0  0  0  0  0999 V2000
   -5.8330   15.1960    1.8270 N   0  0  0  0  0  0  0  0  0  0  0  0
   -5.9700   14.3600    0.7070 C   0  0  0  0  0  0  0  0  0  0  0  0
   -7.3300   14.3130    0.3590 O   0  0  0  0  0  0  0  0  0  0  0  0
   -5.5670   13.1430    1.2970 N   0  0  0  0  0  0  0  0  0  0  0  0
   -5.0540   14.6470   -0.4640 C   0  0  0  0  0  0  0  0  0  0  0  0
   -3.6710   14.6710   -0.2350 C   0  0  0  0  0  0  0  0  0  0  0  0
   -5.5080   14.8780   -1.7780 C   0  0  0  0  0  0  0  0  0  0  0  0
   -2.7740   14.9060   -1.2670 C   0  0  0  0  0  0  0  0  0  0  0  0
   -4.6030   15.1130   -2.8160 C   0  0  0  0  0  0  0  0  0  0  0  0
   -3.2450   15.1250   -2.5500 C   0  0  0  0  0  0  0  0  0  0  0  0
   -2.3270   15.3500   -3.5340 O   0  0  0  0  0  0  0  0  0  0  0  0
  1  2  1  0
  2  3  1  0
  2  4  1  0
  2  5  1  0
  5  6  2  0
  5  7  1  0
  6  8  1  0
  7  9  2  0
  8 10  2  0
  9 10  1  0
 10 11  1  0
M  END
