mac-x0496-mac-x0231
     RDKit          3D

 34 37  0  0  0  0  0  0  0  0999 V2000
   -9.8210   17.7810    4.7760 C   0  0  0  0  0  0  0  0  0  0  0  0
   -9.9190   16.8060    3.6690 C   0  0  0  0  0  0  0  0  0  0  0  0
  -10.9480   16.7520    2.8110 N   0  0  0  0  0  0  0  0  0  0  0  0
   -8.9450   15.8750    3.4490 N   0  0  0  0  0  0  0  0  0  0  0  0
  -10.6040   15.7010    1.9560 O   0  0  0  0  0  0  0  0  0  0  0  0
   -9.4020   15.2280    2.4020 C   0  0  0  0  0  0  0  0  0  0  0  0
   -8.7930   14.0880    1.6740 C   0  0  0  0  0  0  0  0  0  0  0  0
   -7.3770   14.3540    1.4730 N   0  0  0  0  0  0  0  0  0  0  0  0
   -6.9060   14.7400    0.2370 C   0  0  0  0  0  0  0  0  0  0  0  0
   -7.6240   14.8360   -0.7450 O   0  0  0  0  0  0  0  0  0  0  0  0
   -5.4540   15.0470    0.1080 C   0  0  0  0  0  0  0  0  0  0  0  0
   -4.6220   15.1830    1.2220 C   0  0  0  0  0  0  0  0  0  0  0  0
   -4.9300   15.1880   -1.1790 C   0  0  0  0  0  0  0  0  0  0  0  0
   -3.2660   15.4520    1.0520 C   0  0  0  0  0  0  0  0  0  0  0  0
   -3.5730   15.4570   -1.3390 C   0  0  0  0  0  0  0  0  0  0  0  0
   -2.9790   15.5590   -2.6830 C   0  0  0  0  0  0  0  0  0  0  0  0
   -2.7390   15.5910   -0.2250 C   0  0  0  0  0  0  0  0  0  0  0  0
   -2.7630   16.3280   -3.7290 N   0  0  0  0  0  0  0  0  0  0  0  0
   -2.4740   14.3450   -2.8640 O   0  0  0  0  0  0  0  0  0  0  0  0
   -2.0650   15.3500   -4.3800 C   0  0  0  0  0  0  0  0  0  0  0  0
   -0.6770   15.2750   -4.4060 C   0  0  0  0  0  0  0  0  0  0  0  0
   -2.8520   14.3490   -4.9740 C   0  0  0  0  0  0  0  0  0  0  0  0
   -0.1100   14.1290   -4.9220 C   0  0  0  0  0  0  0  0  0  0  0  0
    0.2600   16.3230   -3.8960 C   0  0  0  0  0  0  0  0  0  0  0  0
   -2.2670   13.2410   -5.5600 C   0  0  0  0  0  0  0  0  0  0  0  0
   -0.0330   17.2980   -3.2350 O   0  0  0  0  0  0  0  0  0  0  0  0
    1.3400   14.0160   -4.7560 C   0  0  0  0  0  0  0  0  0  0  0  0
    1.5620   16.1580   -4.3150 N   0  0  0  0  0  0  0  0  0  0  0  0
   -0.8850   13.1190   -5.5130 C   0  0  0  0  0  0  0  0  0  0  0  0
    1.9270   12.6570   -4.7490 C   0  0  0  0  0  0  0  0  0  0  0  0
    2.1430   14.9710   -4.4550 N   0  0  0  0  0  0  0  0  0  0  0  0
    1.3860   12.0590   -3.4630 C   0  0  0  0  0  0  0  0  0  0  0  0
    0.5720   10.9920   -3.6270 O   0  0  0  0  0  0  0  0  0  0  0  0
    1.6490   12.5000   -2.3500 O   0  0  0  0  0  0  0  0  0  0  0  0
  1  2  1  0
  2  3  2  0
  2  4  1  0
  3  5  1  0
  4  6  2  0
  5  6  1  0
  6  7  1  0
  7  8  1  0
  8  9  1  0
  9 10  2  0
  9 11  1  0
 11 12  2  0
 11 13  1  0
 12 14  1  0
 13 15  2  0
 15 16  1  0
 14 17  2  0
 15 17  1  0
 16 18  2  3
 16 19  1  0
 18 20  1  0
 20 21  1  0
 20 22  2  0
 21 23  2  0
 21 24  1  0
 22 25  1  0
 24 26  2  0
 23 27  1  0
 24 28  1  0
 23 29  1  0
 25 29  2  0
 27 30  1  0
 27 31  2  0
 28 31  1  0
 30 32  1  0
 32 33  1  0
 32 34  2  0
M  END
