mac-x0510-mac-x0439
     RDKit          3D

 25 28  0  0  0  0  0  0  0  0999 V2000
   -6.0760   15.0020    0.5050 O   0  0  0  0  0  0  0  0  0  0  0  0
   -4.8740   14.9760    0.2660 C   0  0  0  0  0  0  0  0  0  0  0  0
   -4.3900   15.0860   -1.0330 N   0  0  0  0  0  0  0  0  0  0  0  0
   -3.9500   14.8280    1.2680 N   0  0  0  0  0  0  0  0  0  0  0  0
   -2.6310   14.7780    0.9640 C   0  0  0  0  0  0  0  0  0  0  0  0
   -3.0650   15.0070   -1.4180 C   0  0  0  0  0  0  0  0  0  0  0  0
   -2.7630   15.0680   -2.6670 N   0  0  0  0  0  0  0  0  0  0  0  0
   -2.1850   14.8630   -0.3230 C   0  0  0  0  0  0  0  0  0  0  0  0
   -1.6280   14.6450    1.8510 N   0  0  0  0  0  0  0  0  0  0  0  0
   -3.7130   15.2060   -3.7360 C   0  0  0  0  0  0  0  0  0  0  0  0
   -0.8320   14.7840   -0.2110 N   0  0  0  0  0  0  0  0  0  0  0  0
   -0.5420   14.6540    1.1150 C   0  0  0  0  0  0  0  0  0  0  0  0
   -3.0960   15.6480   -5.1000 C   0  0  0  0  0  0  0  0  0  0  0  0
   -1.8190   16.4810   -5.2350 C   0  0  0  0  0  0  0  0  0  0  0  0
   -0.4980   15.7690   -5.0450 C   0  0  2  0  0  0  0  0  0  0  0  0
   -1.7430   17.8010   -5.5600 C   0  0  0  0  0  0  0  0  0  0  0  0
   -0.1980   14.6690   -4.1080 C   0  0  0  0  0  0  0  0  0  0  0  0
    0.6360   16.6840   -4.6690 C   0  0  0  0  0  0  0  0  0  0  0  0
   -0.4750   18.5010   -5.7130 C   0  0  0  0  0  0  0  0  0  0  0  0
    0.9520   14.9560   -3.5010 C   0  0  0  0  0  0  0  0  0  0  0  0
    1.4730   16.1880   -3.8220 N   0  0  0  0  0  0  0  0  0  0  0  0
    0.7080   18.0120   -5.3030 C   0  0  0  0  0  0  0  0  0  0  0  0
    1.6340   14.0410   -2.5490 C   0  0  0  0  0  0  0  0  0  0  0  0
    2.9630   14.3060   -2.5070 O   0  0  0  0  0  0  0  0  0  0  0  0
    1.0870   13.1620   -1.9160 O   0  0  0  0  0  0  0  0  0  0  0  0
  1  2  2  0
  2  3  1  0
  2  4  1  0
  4  5  1  0
  3  6  1  0
  6  7  2  3
  5  8  2  0
  6  8  1  0
  5  9  1  0
  7 10  1  0
  8 11  1  0
  9 12  2  0
 11 12  1  0
 10 13  1  0
 13 14  1  0
 14 15  1  0
 14 16  2  0
 15 17  1  1
 15 18  1  0
 16 19  1  0
 17 20  2  0
 18 21  2  0
 20 21  1  0
 18 22  1  0
 19 22  2  0
 20 23  1  0
 23 24  1  0
 23 25  2  0
M  END
