mac-x0131-diamond-x0421_0_A
     RDKit          3D

 27 32  0  0  0  0  0  0  0  0999 V2000
   -3.3560   14.7760   -3.6080 C   0  0  0  0  0  0  0  0  0  0  0  0
   -2.0080   14.2680   -2.6650 C   0  0  0  0  0  0  0  0  0  0  0  0
   -2.0800   14.2230   -3.7950 C   0  0  0  0  0  0  0  0  0  0  0  0
   -3.7790   15.0670   -2.3920 C   0  0  0  0  0  0  0  0  0  0  0  0
   -4.4010   15.4330   -1.2510 C   0  0  0  0  0  0  0  0  0  0  0  0
   -2.6150   14.5830   -2.3830 N   0  0  0  0  0  0  0  0  0  0  0  0
   -2.7230   14.6530   -1.4790 C   0  0  0  0  0  0  0  0  0  0  0  0
   -5.7500   15.9960   -1.0640 C   0  0  0  0  0  0  0  0  0  0  0  0
   -3.3200   15.0980   -0.2700 C   0  0  0  0  0  0  0  0  0  0  0  0
   -2.2170   14.5580   -1.0320 C   0  0  0  0  0  0  0  0  0  0  0  0
   -0.9440   13.6590   -4.4300 C   0  0  0  0  0  0  0  0  0  0  0  0
   -2.5880   15.7990   -0.7000 C   0  0  0  0  0  0  0  0  0  0  0  0
   -3.7390   13.8390   -0.9660 N   0  0  0  0  0  0  0  0  0  0  0  0
   -3.0940   15.1660    1.1590 C   0  0  0  0  0  0  0  0  0  0  0  0
   -1.0290   14.1200   -0.5120 N   0  0  0  0  0  0  0  0  0  0  0  0
    0.1220   14.2480   -5.1100 C   0  0  0  0  0  0  0  0  0  0  0  0
   -0.7390   12.2920   -4.4600 O   0  0  0  0  0  0  0  0  0  0  0  0
   -3.5500   15.6810    0.2820 N   0  0  0  0  0  0  0  0  0  0  0  0
   -4.2190   14.4830    0.0790 C   0  0  0  0  0  0  0  0  0  0  0  0
   -4.0130   15.6650    2.0940 N   0  0  0  0  0  0  0  0  0  0  0  0
   -1.9070   14.7220    1.6650 N   0  0  0  0  0  0  0  0  0  0  0  0
   -0.9690   14.2400    0.8260 C   0  0  0  0  0  0  0  0  0  0  0  0
    0.4020   12.0460   -5.1360 C   0  0  0  0  0  0  0  0  0  0  0  0
    0.9770   13.2150   -5.5590 C   0  0  0  0  0  0  0  0  0  0  0  0
   -5.3880   13.9410    0.9450 C   0  0  0  0  0  0  0  0  0  0  0  0
   -6.5230   13.2040    0.2820 C   0  0  0  0  0  0  0  0  0  0  0  0
   -5.5050   12.4530    1.0830 C   0  0  0  0  0  0  0  0  0  0  0  0
  1  2  1  0
  2  3  2  0
  1  4  1  0
  4  5  2  0
  3  6  1  0
  4  6  1  0
  2  7  1  0
  5  8  1  0
  5  9  1  0
  6 10  1  0
  9 10  2  0
  3 11  1  0
  7 12  2  0
  7 13  1  0
  9 14  1  0
 10 15  1  0
 11 16  2  0
 11 17  1  0
 12 18  1  0
 13 19  2  0
 18 19  1  0
 14 20  1  0
 14 21  2  0
 15 22  2  0
 21 22  1  0
 17 23  1  0
 16 24  1  0
 23 24  2  0
 19 25  1  0
 25 26  1  0
 25 27  1  0
 26 27  1  0
M  END
