mac-x0206-mac-x0263
     RDKit          3D

 19 20  0  0  0  0  0  0  0  0999 V2000
   -2.6520   13.8800   -0.2550 N   0  0  0  0  0  0  0  0  0  0  0  0
   -3.9450   13.7360   -0.6550 C   0  0  0  0  0  0  0  0  0  0  0  0
   -4.1370   13.4110   -1.8300 O   0  0  0  0  0  0  0  0  0  0  0  0
   -5.1300   14.0820    0.2930 C   0  0  1  0  0  0  0  0  0  0  0  0
   -6.3140   14.6140   -0.5660 C   0  0  1  0  0  0  0  0  0  0  0  0
   -5.5500   13.0700    1.2850 C   0  0  0  0  0  0  0  0  0  0  0  0
   -4.3830   15.1420    0.9920 C   0  0  0  0  0  0  0  0  0  0  0  0
   -6.9300   13.6170   -1.4070 O   0  0  0  0  0  0  0  0  0  0  0  0
   -7.4820   15.0120    0.2690 C   0  0  0  0  0  0  0  0  0  0  0  0
   -6.7710   13.2340    1.8190 C   0  0  0  0  0  0  0  0  0  0  0  0
   -5.5400   15.3720   -1.6020 C   0  0  0  0  0  0  0  0  0  0  0  0
   -4.0130   16.0790    0.2090 C   0  0  0  0  0  0  0  0  0  0  0  0
   -7.6720   14.3280    1.4280 C   0  0  0  0  0  0  0  0  0  0  0  0
   -4.4180   16.0130   -1.2040 C   0  0  0  0  0  0  0  0  0  0  0  0
   -8.7910   14.6110    2.3740 C   0  0  0  0  0  0  0  0  0  0  0  0
   -9.8080   15.6170    1.8710 C   0  0  0  0  0  0  0  0  0  0  0  0
  -11.0230   15.5930    2.7450 C   0  0  0  0  0  0  0  0  0  0  0  0
  -11.7050   14.4370    2.6280 O   0  0  0  0  0  0  0  0  0  0  0  0
  -11.4120   16.4690    3.4960 O   0  0  0  0  0  0  0  0  0  0  0  0
  1  2  1  0
  2  3  2  0
  4  2  1  6
  4  5  1  0
  4  6  1  0
  4  7  1  0
  5  8  1  6
  5  9  1  0
  6 10  2  0
  5 11  1  0
  7 12  2  0
  9 13  2  0
 10 13  1  0
 11 14  2  0
 12 14  1  0
 13 15  1  0
 15 16  1  0
 16 17  1  0
 17 18  1  0
 17 19  2  0
M  END
