mac-x0159-mac-x0228
     RDKit          3D

 28 32  0  0  0  0  0  0  0  0999 V2000
   -4.4500   15.5130    1.5870 N   0  0  0  0  0  0  0  0  0  0  0  0
   -3.4590   15.7800    0.5680 C   0  0  1  0  0  0  0  0  0  0  0  0
   -2.2380   14.8430    0.4780 C   0  0  1  0  0  0  0  0  0  0  0  0
   -4.1880   15.9150   -0.6360 N   0  0  0  0  0  0  0  0  0  0  0  0
   -3.4190   15.7000   -1.8110 C   0  0  0  0  0  0  0  0  0  0  0  0
   -1.4000   14.9800   -0.8240 C   0  0  1  0  0  0  0  0  0  0  0  0
   -1.2750   15.0730    1.5520 N   0  0  0  0  0  0  0  0  0  0  0  0
   -1.9920   15.8310   -1.8690 N   0  0  0  0  0  0  0  0  0  0  0  0
   -0.0320   15.2440   -0.3860 N   0  0  0  0  0  0  0  0  0  0  0  0
   -0.0020   14.7680    0.9680 C   0  0  0  0  0  0  0  0  0  0  0  0
   -1.6580   15.3990   -3.1230 C   0  0  0  0  0  0  0  0  0  0  0  0
   -2.5000   14.4140   -3.3650 C   0  0  0  0  0  0  0  0  0  0  0  0
   -0.6580   16.0040   -3.9510 C   0  0  0  0  0  0  0  0  0  0  0  0
   -2.4550   13.6610   -4.4940 O   0  0  0  0  0  0  0  0  0  0  0  0
    0.6970   15.9120   -4.1410 C   0  0  0  0  0  0  0  0  0  0  0  0
   -1.3050   16.9380   -4.7590 N   0  0  0  0  0  0  0  0  0  0  0  0
   -3.6400   14.2470   -2.4280 C   0  0  0  0  0  0  0  0  0  0  0  0
   -0.4930   17.5530   -5.5450 C   0  0  0  0  0  0  0  0  0  0  0  0
    1.1120   17.0460   -5.3760 S   0  0  0  0  0  0  0  0  0  0  0  0
   -3.7540   13.6530   -1.1500 C   0  0  0  0  0  0  0  0  0  0  0  0
   -4.7800   14.8680   -2.9950 C   0  0  0  0  0  0  0  0  0  0  0  0
   -0.8830   18.6080   -6.5240 C   0  0  0  0  0  0  0  0  0  0  0  0
   -5.0170   13.7530   -0.5170 C   0  0  0  0  0  0  0  0  0  0  0  0
   -6.0060   14.9480   -2.3610 C   0  0  0  0  0  0  0  0  0  0  0  0
   -6.1050   14.3920   -1.1220 C   0  0  0  0  0  0  0  0  0  0  0  0
   -5.4620   13.2670    0.8060 C   0  0  0  0  0  0  0  0  0  0  0  0
   -7.2550   14.4090   -0.3730 O   0  0  0  0  0  0  0  0  0  0  0  0
   -6.7870   14.0290    0.9420 C   0  0  0  0  0  0  0  0  0  0  0  0
  2  1  1  1
  2  3  1  0
  2  4  1  0
  4  5  1  0
  3  6  1  0
  3  7  1  1
  5  8  1  0
  6  8  1  0
  6  9  1  1
  7 10  1  0
  9 10  1  0
  8 11  1  0
 11 12  2  3
 11 13  1  0
 12 14  1  0
 13 15  2  0
 13 16  1  0
 12 17  1  0
 16 18  2  0
 15 19  1  0
 18 19  1  0
 17 20  2  0
 17 21  1  0
 18 22  1  0
 20 23  1  0
 21 24  2  0
 23 25  2  0
 24 25  1  0
 23 26  1  0
 25 27  1  0
 26 28  1  0
 27 28  1  0
M  END
