mac-x0572-mac-x0179
     RDKit          3D

 31 34  0  0  0  0  0  0  0  0999 V2000
   -7.8650   14.7500    3.4190 C   0  0  0  0  0  0  0  0  0  0  0  0
   -7.2110   14.7700    2.0540 C   0  0  0  0  0  0  0  0  0  0  0  0
   -5.8470   15.0160    2.1390 N   0  0  0  0  0  0  0  0  0  0  0  0
   -7.8870   14.5790    0.8960 C   0  0  0  0  0  0  0  0  0  0  0  0
   -9.2400   14.3390    0.7670 O   0  0  0  0  0  0  0  0  0  0  0  0
   -7.0770   14.6280   -0.3570 C   0  0  0  0  0  0  0  0  0  0  0  0
   -5.0790   14.7850    1.1200 C   0  0  0  0  0  0  0  0  0  0  0  0
   -7.5590   14.9330   -1.4520 O   0  0  0  0  0  0  0  0  0  0  0  0
   -5.6390   14.2560   -0.1650 C   0  0  2  0  0  0  0  0  0  0  0  0
   -3.6110   15.0190    1.2070 C   0  0  0  0  0  0  0  0  0  0  0  0
   -2.8820   15.0290    0.0740 C   0  0  0  0  0  0  0  0  0  0  0  0
   -4.7590   14.4900   -1.3510 C   0  0  0  0  0  0  0  0  0  0  0  0
   -3.4730   14.8290   -1.2490 C   0  0  0  0  0  0  0  0  0  0  0  0
   -2.6550   14.9760   -2.5130 C   0  0  0  0  0  0  0  0  0  0  0  0
   -2.7820   13.8010   -3.5210 C   0  0  0  0  0  0  0  0  0  0  0  0
   -2.0290   12.5070   -3.1230 C   0  0  0  0  0  0  0  0  0  0  0  0
   -2.0140   11.5450   -4.2300 N   0  0  0  0  0  0  0  0  0  0  0  0
   -1.1100   11.4000   -5.1340 C   0  0  0  0  0  0  0  0  0  0  0  0
    0.0740   12.0480   -5.3740 N   0  0  0  0  0  0  0  0  0  0  0  0
   -1.2300   10.3660   -6.1900 C   0  0  0  0  0  0  0  0  0  0  0  0
    0.8550   12.8900   -4.4810 C   0  0  0  0  0  0  0  0  0  0  0  0
    0.7200   11.5150   -6.4590 C   0  0  0  0  0  0  0  0  0  0  0  0
   -0.1100   10.4470   -6.9920 C   0  0  0  0  0  0  0  0  0  0  0  0
   -2.2190    9.4310   -6.4380 C   0  0  0  0  0  0  0  0  0  0  0  0
    0.9750   12.1540   -3.1520 C   0  0  0  0  0  0  0  0  0  0  0  0
    1.7920   11.8230   -6.9110 O   0  0  0  0  0  0  0  0  0  0  0  0
    0.0950    9.6180   -8.0800 C   0  0  0  0  0  0  0  0  0  0  0  0
   -2.0400    8.5740   -7.5360 C   0  0  0  0  0  0  0  0  0  0  0  0
    1.5450   12.9000   -2.1910 O   0  0  0  0  0  0  0  0  0  0  0  0
    0.6190   11.0090   -2.9150 O   0  0  0  0  0  0  0  0  0  0  0  0
   -0.8930    8.6660   -8.3510 C   0  0  0  0  0  0  0  0  0  0  0  0
  1  2  1  0
  2  3  1  0
  2  4  2  0
  4  5  1  0
  4  6  1  0
  3  7  2  0
  6  8  2  0
  6  9  1  0
  7  9  1  0
  7 10  1  0
 10 11  2  0
  9 12  1  6
 11 13  1  0
 12 13  2  0
 13 14  1  0
 14 15  1  0
 15 16  1  0
 16 17  1  0
 17 18  2  3
 18 19  1  0
 18 20  1  0
 19 21  1  0
 19 22  1  0
 20 23  2  0
 22 23  1  0
 20 24  1  0
 21 25  1  0
 22 26  2  0
 23 27  1  0
 24 28  2  0
 25 29  1  0
 25 30  2  0
 27 31  2  0
 28 31  1  0
M  END
