mac-x0132-mac-x0255
     RDKit          3D

 27 30  0  0  0  0  0  0  0  0999 V2000
   -4.2830   15.2670    1.9890 N   0  0  0  0  0  0  0  0  0  0  0  0
   -5.2820   15.0240    1.0500 C   0  0  0  0  0  0  0  0  0  0  0  0
   -6.5570   14.9210    1.4560 N   0  0  0  0  0  0  0  0  0  0  0  0
   -4.8910   14.9090   -0.2540 C   0  0  0  0  0  0  0  0  0  0  0  0
   -5.9020   14.7230   -1.1870 C   0  0  0  0  0  0  0  0  0  0  0  0
   -7.4580   14.7290    0.4810 C   0  0  0  0  0  0  0  0  0  0  0  0
   -3.5490   14.9670   -0.6390 C   0  0  0  0  0  0  0  0  0  0  0  0
   -7.1900   14.6360   -0.8330 N   0  0  0  0  0  0  0  0  0  0  0  0
   -5.5280   14.6220   -2.5200 C   0  0  0  0  0  0  0  0  0  0  0  0
   -3.1780   14.8310   -1.9590 C   0  0  0  0  0  0  0  0  0  0  0  0
   -1.7170   14.8360   -2.3020 C   0  0  0  0  0  0  0  0  0  0  0  0
   -4.1800   14.6730   -2.9170 C   0  0  0  0  0  0  0  0  0  0  0  0
   -1.0370   13.4950   -2.0510 C   0  0  0  0  0  0  0  0  0  0  0  0
    0.3120   13.6630   -1.3490 C   0  0  0  0  0  0  0  0  0  0  0  0
    1.3270   12.8340   -1.9110 O   0  0  0  0  0  0  0  0  0  0  0  0
    0.9220   12.0740   -2.9640 C   0  0  0  0  0  0  0  0  0  0  0  0
    0.2930   11.0320   -2.8370 O   0  0  0  0  0  0  0  0  0  0  0  0
    1.3800   12.7180   -4.2620 C   0  0  0  0  0  0  0  0  0  0  0  0
    0.6780   14.0130   -4.5670 C   0  0  0  0  0  0  0  0  0  0  0  0
    1.2190   15.2790   -4.6300 C   0  0  0  0  0  0  0  0  0  0  0  0
   -0.9960   14.0430   -4.9000 S   0  0  0  0  0  0  0  0  0  0  0  0
    0.2600   16.2900   -4.9600 C   0  0  0  0  0  0  0  0  0  0  0  0
   -1.0160   15.7470   -5.1330 C   0  0  0  0  0  0  0  0  0  0  0  0
    0.4200   17.6830   -5.1280 C   0  0  0  0  0  0  0  0  0  0  0  0
   -2.1270   16.5500   -5.4620 C   0  0  0  0  0  0  0  0  0  0  0  0
   -0.6770   18.4730   -5.4630 C   0  0  0  0  0  0  0  0  0  0  0  0
   -1.9270   17.9190   -5.6280 C   0  0  0  0  0  0  0  0  0  0  0  0
  1  2  1  0
  2  3  2  0
  2  4  1  0
  4  5  2  0
  3  6  1  0
  4  7  1  0
  5  8  1  0
  6  8  2  0
  5  9  1  0
  7 10  2  0
 10 11  1  0
  9 12  2  0
 10 12  1  0
 11 13  1  0
 13 14  1  0
 14 15  1  0
 15 16  1  0
 16 17  2  0
 16 18  1  0
 18 19  1  0
 19 20  2  0
 19 21  1  0
 20 22  1  0
 21 23  1  0
 22 23  2  0
 22 24  1  0
 23 25  1  0
 24 26  2  0
 25 27  2  0
 26 27  1  0
M  END
