mac-x0437-mac-x0328
     RDKit          3D

 25 27  0  0  0  0  0  0  0  0999 V2000
    1.7040   12.7700   -2.1160 O   0  0  0  0  0  0  0  0  0  0  0  0
    1.2190   12.1840   -3.2200 C   0  0  0  0  0  0  0  0  0  0  0  0
    0.6050   11.1330   -3.1370 O   0  0  0  0  0  0  0  0  0  0  0  0
    1.5010   12.9530   -4.4850 C   0  0  0  0  0  0  0  0  0  0  0  0
    0.2150   13.2920   -5.2600 C   0  0  2  0  0  0  0  0  0  0  0  0
   -0.5390   14.4860   -4.5850 C   0  0  0  0  0  0  0  0  0  0  0  0
   -0.6100   12.1050   -5.5230 N   0  0  0  0  0  0  0  0  0  0  0  0
   -1.7500   14.1730   -3.8380 O   0  0  0  0  0  0  0  0  0  0  0  0
   -1.7780   11.7500   -4.9030 C   0  0  0  0  0  0  0  0  0  0  0  0
   -0.3280   11.1240   -6.4620 C   0  0  0  0  0  0  0  0  0  0  0  0
   -1.8120   14.6420   -2.5450 C   0  0  0  0  0  0  0  0  0  0  0  0
   -2.2610   10.6190   -5.3710 N   0  0  0  0  0  0  0  0  0  0  0  0
   -1.3770   10.2160   -6.3340 C   0  0  0  0  0  0  0  0  0  0  0  0
    0.7090   10.9400   -7.3840 C   0  0  0  0  0  0  0  0  0  0  0  0
   -0.8410   14.8770   -1.8480 O   0  0  0  0  0  0  0  0  0  0  0  0
   -1.4080    9.0700   -7.1470 C   0  0  0  0  0  0  0  0  0  0  0  0
    0.6610    9.7920   -8.1880 C   0  0  0  0  0  0  0  0  0  0  0  0
   -3.2150   14.8330   -2.0510 C   0  0  0  0  0  0  0  0  0  0  0  0
   -0.3790    8.8710   -8.0710 C   0  0  0  0  0  0  0  0  0  0  0  0
   -3.4260   14.8390   -0.6550 C   0  0  0  0  0  0  0  0  0  0  0  0
   -4.3150   15.0020   -2.8980 C   0  0  0  0  0  0  0  0  0  0  0  0
   -4.7080   15.0070   -0.1240 C   0  0  0  0  0  0  0  0  0  0  0  0
   -5.5970   15.1690   -2.3640 C   0  0  0  0  0  0  0  0  0  0  0  0
   -5.7860   15.1700   -0.9880 C   0  0  0  0  0  0  0  0  0  0  0  0
   -7.0610   15.3330   -0.5370 O   0  0  0  0  0  0  0  0  0  0  0  0
  1  2  1  0
  2  3  2  0
  2  4  1  0
  5  4  1  1
  5  6  1  0
  5  7  1  0
  6  8  1  0
  7  9  1  0
  7 10  1  0
  8 11  1  0
  9 12  2  0
 10 13  2  0
 12 13  1  0
 10 14  1  0
 11 15  2  0
 13 16  1  0
 14 17  2  0
 11 18  1  0
 16 19  2  0
 17 19  1  0
 18 20  2  0
 18 21  1  0
 20 22  1  0
 21 23  2  0
 22 24  2  0
 23 24  1  0
 24 25  1  0
M  END
