mac-x0223-mac-x0231
     RDKit          3D

 16 17  0  0  0  0  0  0  0  0999 V2000
    1.3090   18.6060   -5.5270 C   0  0  0  0  0  0  0  0  0  0  0  0
    0.1010   18.2570   -4.8960 O   0  0  0  0  0  0  0  0  0  0  0  0
   -0.3150   17.0540   -5.5240 C   0  0  2  0  0  0  0  0  0  0  0  0
   -1.7930   16.7970   -5.1730 C   0  0  2  0  0  0  0  0  0  0  0  0
    0.6550   15.8950   -5.2190 C   0  0  2  0  0  0  0  0  0  0  0  0
   -2.2710   18.0490   -4.6910 O   0  0  0  0  0  0  0  0  0  0  0  0
   -2.0450   15.6650   -4.2100 C   0  0  0  0  0  0  0  0  0  0  0  0
    0.0390   14.5440   -4.9480 C   0  0  2  0  0  0  0  0  0  0  0  0
    1.5690   16.0920   -4.0840 N   0  0  0  0  0  0  0  0  0  0  0  0
   -1.2010   14.6140   -4.1020 C   0  0  0  0  0  0  0  0  0  0  0  0
    1.3280   13.7960   -4.5870 C   0  0  1  0  0  0  0  0  0  0  0  0
    2.0140   14.7720   -3.6840 N   0  0  0  0  0  0  0  0  0  0  0  0
    1.2320   12.4050   -3.9750 C   0  0  0  0  0  0  0  0  0  0  0  0
    0.3320   12.3410   -2.7830 C   0  0  0  0  0  0  0  0  0  0  0  0
   -0.5470   11.5080   -2.6580 O   0  0  0  0  0  0  0  0  0  0  0  0
    0.6010   13.2910   -1.8610 O   0  0  0  0  0  0  0  0  0  0  0  0
  1  2  1  0
  3  2  1  1
  3  4  1  0
  3  5  1  0
  4  6  1  1
  4  7  1  0
  5  8  1  0
  5  9  1  1
  7 10  2  0
  8 10  1  1
  8 11  1  0
  9 12  1  0
 11 12  1  0
 11 13  1  1
 13 14  1  0
 14 15  2  0
 14 16  1  0
M  END
