mac-x0568-mac-x0576
     RDKit          3D

 17 18  0  0  0  0  0  0  0  0999 V2000
   -7.5640   14.0580    1.8770 C   0  0  0  0  0  0  0  0  0  0  0  0
   -6.4550   13.9700    0.8220 C   0  0  2  0  0  0  0  0  0  0  0  0
   -5.0140   14.0150    1.4080 C   0  0  0  0  0  0  0  0  0  0  0  0
   -6.7550   14.9290   -0.2370 N   0  0  0  0  0  0  0  0  0  0  0  0
   -5.6380   15.4240   -1.0470 C   0  0  0  0  0  0  0  0  0  0  0  0
   -3.8210   14.4130    0.4740 C   0  0  2  0  0  0  0  0  0  0  0  0
   -4.2540   15.5970   -0.3900 C   0  0  1  0  0  0  0  0  0  0  0  0
   -3.4800   13.3390   -0.5690 C   0  0  0  0  0  0  0  0  0  0  0  0
   -2.5920   14.7450    1.3200 N   0  0  0  0  0  0  0  0  0  0  0  0
   -3.2390   15.8460   -1.4890 C   0  0  0  0  0  0  0  0  0  0  0  0
   -1.2410   14.7290    0.7610 C   0  0  1  0  0  0  0  0  0  0  0  0
   -2.1620   13.7120   -1.2050 C   0  0  0  0  0  0  0  0  0  0  0  0
   -3.5590   15.8350   -2.6740 O   0  0  0  0  0  0  0  0  0  0  0  0
   -1.9450   16.0520   -1.1580 N   0  0  0  0  0  0  0  0  0  0  0  0
   -0.4250   14.1110    1.7470 N   0  0  0  0  0  0  0  0  0  0  0  0
   -1.9980   13.9120   -2.4060 O   0  0  0  0  0  0  0  0  0  0  0  0
   -1.1500   13.8290   -0.3090 N   0  0  0  0  0  0  0  0  0  0  0  0
  2  1  1  1
  2  3  1  0
  2  4  1  0
  4  5  1  0
  6  3  1  1
  5  7  1  0
  6  7  1  0
  6  8  1  0
  6  9  1  0
  7 10  1  6
  9 11  1  0
  8 12  1  0
 10 13  2  0
 10 14  1  0
 11 15  1  1
 12 16  2  0
 11 17  1  0
 12 17  1  0
M  END
