mac-x0417-mac-x0271
     RDKit          3D

 28 31  0  0  0  0  0  0  0  0999 V2000
    1.1660   12.8850   -2.4780 O   0  0  0  0  0  0  0  0  0  0  0  0
    0.6460   12.0700   -3.4190 C   0  0  0  0  0  0  0  0  0  0  0  0
    0.4400   10.8990   -3.1430 O   0  0  0  0  0  0  0  0  0  0  0  0
    0.3920   12.7560   -4.7520 C   0  0  2  0  0  0  0  0  0  0  0  0
   -0.8210   13.7140   -4.7480 C   0  0  0  0  0  0  0  0  0  0  0  0
    0.2730   11.7300   -5.8370 C   0  0  0  0  0  0  0  0  0  0  0  0
   -1.8010   13.5300   -3.5700 C   0  0  0  0  0  0  0  0  0  0  0  0
    1.2580   11.6540   -6.7340 N   0  0  0  0  0  0  0  0  0  0  0  0
   -0.7460   10.7730   -6.0990 C   0  0  0  0  0  0  0  0  0  0  0  0
   -2.1130   14.8720   -2.9050 C   0  0  0  0  0  0  0  0  0  0  0  0
    0.8980   10.6420   -7.6120 O   0  0  0  0  0  0  0  0  0  0  0  0
   -0.2940   10.1170   -7.2310 C   0  0  0  0  0  0  0  0  0  0  0  0
   -1.9700   10.3780   -5.5380 C   0  0  0  0  0  0  0  0  0  0  0  0
   -3.5140   15.1790   -2.9940 O   0  0  0  0  0  0  0  0  0  0  0  0
   -0.9800    9.0780   -7.8620 C   0  0  0  0  0  0  0  0  0  0  0  0
   -2.6880    9.3370   -6.1460 C   0  0  0  0  0  0  0  0  0  0  0  0
   -2.1990    8.7000   -7.2880 C   0  0  0  0  0  0  0  0  0  0  0  0
   -4.2850   15.0970   -1.8540 C   0  0  0  0  0  0  0  0  0  0  0  0
   -5.6820   15.0540   -1.8200 C   0  0  0  0  0  0  0  0  0  0  0  0
   -3.5710   15.0560   -0.6490 C   0  0  0  0  0  0  0  0  0  0  0  0
   -6.3300   14.9600   -0.5830 C   0  0  0  0  0  0  0  0  0  0  0  0
   -4.2330   14.9640    0.5820 C   0  0  0  0  0  0  0  0  0  0  0  0
   -5.6210   14.9120    0.6130 C   0  0  0  0  0  0  0  0  0  0  0  0
   -7.7450   14.9120   -0.5810 O   0  0  0  0  0  0  0  0  0  0  0  0
   -6.3560   14.8030    1.8620 C   0  0  0  0  0  0  0  0  0  0  0  0
   -8.4710   14.8860    0.6090 C   0  0  0  0  0  0  0  0  0  0  0  0
   -9.6960   14.9500    0.6390 O   0  0  0  0  0  0  0  0  0  0  0  0
   -7.6920   14.7850    1.8540 C   0  0  0  0  0  0  0  0  0  0  0  0
  1  2  1  0
  2  3  2  0
  2  4  1  0
  4  5  1  1
  4  6  1  0
  5  7  1  0
  6  8  2  0
  6  9  1  0
  7 10  1  0
  8 11  1  0
  9 12  2  0
 11 12  1  0
  9 13  1  0
 10 14  1  0
 12 15  1  0
 13 16  2  0
 15 17  2  0
 16 17  1  0
 14 18  1  0
 18 19  2  0
 18 20  1  0
 19 21  1  0
 20 22  2  0
 21 23  2  0
 22 23  1  0
 21 24  1  0
 23 25  1  0
 24 26  1  0
 26 27  2  0
 25 28  2  0
 26 28  1  0
M  END
