mac-x0116-diamond-x0962_2_B
     RDKit          3D

 25 28  0  0  0  0  0  0  0  0999 V2000
   -6.3160   14.4970    0.6070 C   0  0  0  0  0  0  0  0  0  0  0  0
   -5.0530   15.1350    0.9490 N   0  0  0  0  0  0  0  0  0  0  0  0
   -4.9290   15.3690    2.3500 C   0  0  0  0  0  0  0  0  0  0  0  0
   -6.5620   13.1530    1.1810 C   0  0  0  0  0  0  0  0  0  0  0  0
   -6.7390   12.1770    0.2540 O   0  0  0  0  0  0  0  0  0  0  0  0
   -6.6690   12.6250    2.4560 C   0  0  0  0  0  0  0  0  0  0  0  0
   -3.9580   14.9920    0.0970 C   0  0  0  0  0  0  0  0  0  0  0  0
   -6.1070   14.9120    3.2570 C   0  0  0  0  0  0  0  0  0  0  0  0
   -6.9350   11.2610    2.2880 C   0  0  0  0  0  0  0  0  0  0  0  0
   -6.9680   11.0350    0.9330 C   0  0  0  0  0  0  0  0  0  0  0  0
   -4.2380   15.0770   -1.2490 N   0  0  0  0  0  0  0  0  0  0  0  0
   -2.6390   14.7770    0.4040 C   0  0  0  0  0  0  0  0  0  0  0  0
   -3.3090   14.9250   -2.2180 C   0  0  0  0  0  0  0  0  0  0  0  0
   -1.6850   14.6480   -0.7130 C   0  0  0  0  0  0  0  0  0  0  0  0
   -1.8930   14.6350    1.5650 N   0  0  0  0  0  0  0  0  0  0  0  0
   -7.4850   15.2850    3.1800 N   0  0  0  0  0  0  0  0  0  0  0  0
   -2.0530   14.7120   -2.0250 N   0  0  0  0  0  0  0  0  0  0  0  0
   -0.4840   14.4700   -0.2610 N   0  0  0  0  0  0  0  0  0  0  0  0
   -0.6730   14.4730    1.1130 C   0  0  0  0  0  0  0  0  0  0  0  0
   -8.1320   15.8850    4.2290 C   0  0  0  0  0  0  0  0  0  0  0  0
   -8.3520   15.1410    2.1640 C   0  0  0  0  0  0  0  0  0  0  0  0
   -9.5000   15.6930    2.6320 C   0  0  0  0  0  0  0  0  0  0  0  0
   -9.3740   16.1530    3.9200 N   0  0  0  0  0  0  0  0  0  0  0  0
  -10.6930   15.8020    1.8910 C   0  0  0  0  0  0  0  0  0  0  0  0
  -11.6180   15.9340    1.2190 N   0  0  0  0  0  0  0  0  0  0  0  0
  1  2  1  0
  2  3  1  0
  1  4  1  0
  4  5  1  0
  4  6  2  0
  2  7  1  0
  3  8  1  0
  6  9  1  0
  5 10  1  0
  9 10  2  0
  7 11  1  0
  7 12  2  0
 11 13  1  0
 12 14  1  0
 12 15  1  0
  8 16  1  0
 13 17  2  0
 14 17  1  0
 14 18  2  0
 15 19  2  0
 18 19  1  0
 16 20  1  0
 16 21  1  0
 21 22  2  0
 20 23  2  0
 22 23  1  0
 22 24  1  0
 24 25  3  0
M  END
