mac-x0204-mac-x0139
     RDKit          3D

 23 25  0  0  0  0  0  0  0  0999 V2000
    0.8700   12.9470   -3.3280 N   0  0  0  0  0  0  0  0  0  0  0  0
    0.0420   14.0040   -3.1960 C   0  0  0  0  0  0  0  0  0  0  0  0
    0.2910   14.8510   -2.2800 N   0  0  0  0  0  0  0  0  0  0  0  0
    0.2720   12.0080   -2.7040 C   0  0  0  0  0  0  0  0  0  0  0  0
    0.7730   10.7920   -2.6130 O   0  0  0  0  0  0  0  0  0  0  0  0
   -1.1130   13.9970   -4.1020 C   0  0  0  0  0  0  0  0  0  0  0  0
   -0.6450   15.8190   -2.0200 N   0  0  0  0  0  0  0  0  0  0  0  0
   -1.4950   15.1760   -4.7440 C   0  0  0  0  0  0  0  0  0  0  0  0
   -1.8440   12.8430   -4.3380 C   0  0  0  0  0  0  0  0  0  0  0  0
   -1.7370   15.8330   -3.0080 C   0  0  0  0  0  0  0  0  0  0  0  0
   -2.5910   15.1520   -5.5790 C   0  0  0  0  0  0  0  0  0  0  0  0
   -2.9190   12.7920   -5.1580 N   0  0  0  0  0  0  0  0  0  0  0  0
   -1.0750   15.4850   -0.7310 C   0  0  0  0  0  0  0  0  0  0  0  0
   -3.0170   16.2740   -6.2280 O   0  0  0  0  0  0  0  0  0  0  0  0
   -3.2690   13.9550   -5.7590 C   0  0  0  0  0  0  0  0  0  0  0  0
   -2.3710   15.4650   -0.3560 C   0  0  0  0  0  0  0  0  0  0  0  0
   -0.0550   15.1260    0.1490 N   0  0  0  0  0  0  0  0  0  0  0  0
   -2.6650   15.0720    1.0300 C   0  0  0  0  0  0  0  0  0  0  0  0
   -0.3750   14.7640    1.3310 C   0  0  0  0  0  0  0  0  0  0  0  0
   -3.6580   15.7190   -0.9110 C   0  0  0  0  0  0  0  0  0  0  0  0
   -1.6290   14.7230    1.8260 N   0  0  0  0  0  0  0  0  0  0  0  0
   -3.9310   15.1200    1.2880 N   0  0  0  0  0  0  0  0  0  0  0  0
   -4.5120   15.5100    0.0960 C   0  0  0  0  0  0  0  0  0  0  0  0
  1  2  1  0
  2  3  2  3
  1  4  2  3
  4  5  1  0
  2  6  1  0
  3  7  1  0
  6  8  2  0
  6  9  1  0
  7 10  1  0
  8 11  1  0
  9 12  2  0
  7 13  1  0
 11 14  1  0
 11 15  2  0
 12 15  1  0
 13 16  2  0
 13 17  1  0
 16 18  1  0
 17 19  2  0
 16 20  1  0
 18 21  1  0
 19 21  1  0
 18 22  2  0
 20 23  2  0
 22 23  1  0
M  END
