mac-x0131-mac-x0161
     RDKit          3D

 20 22  0  0  0  0  0  0  0  0999 V2000
   -3.6090   15.1030   -4.2020 C   0  0  0  0  0  0  0  0  0  0  0  0
   -3.0940   15.0240   -2.8060 C   0  0  0  0  0  0  0  0  0  0  0  0
   -3.7600   15.1450   -1.5910 C   0  0  0  0  0  0  0  0  0  0  0  0
   -1.7590   14.8030   -2.5360 N   0  0  0  0  0  0  0  0  0  0  0  0
   -5.2140   15.3950   -1.3860 C   0  0  0  0  0  0  0  0  0  0  0  0
   -0.6960   14.6260   -3.5220 C   0  0  0  0  0  0  0  0  0  0  0  0
   -2.7860   14.9840   -0.5500 C   0  0  0  0  0  0  0  0  0  0  0  0
   -1.5580   14.7710   -1.1710 C   0  0  0  0  0  0  0  0  0  0  0  0
   -2.7820   14.9970    0.8570 C   0  0  0  0  0  0  0  0  0  0  0  0
   -0.3800   14.5750   -0.5520 N   0  0  0  0  0  0  0  0  0  0  0  0
   -0.3760   13.1910   -3.5790 C   0  0  0  0  0  0  0  0  0  0  0  0
   -3.9260   15.2230    1.6160 N   0  0  0  0  0  0  0  0  0  0  0  0
   -1.6220   14.7920    1.5190 N   0  0  0  0  0  0  0  0  0  0  0  0
   -0.5080   14.6000    0.7880 C   0  0  0  0  0  0  0  0  0  0  0  0
    0.4430   12.3910   -2.8200 C   0  0  0  0  0  0  0  0  0  0  0  0
   -0.9900   12.4470   -4.5460 O   0  0  0  0  0  0  0  0  0  0  0  0
   -0.5560   11.1640   -4.3870 C   0  0  0  0  0  0  0  0  0  0  0  0
    0.3100   11.0940   -3.3350 C   0  0  0  0  0  0  0  0  0  0  0  0
   -1.0030   10.2240   -5.2050 O   0  0  0  0  0  0  0  0  0  0  0  0
   -2.0650   10.5900   -6.0700 C   0  0  0  0  0  0  0  0  0  0  0  0
  1  2  1  0
  2  3  2  0
  2  4  1  0
  3  5  1  0
  4  6  1  0
  3  7  1  0
  4  8  1  0
  7  8  2  0
  7  9  1  0
  8 10  1  0
  6 11  1  0
  9 12  1  0
  9 13  2  0
 10 14  2  0
 13 14  1  0
 11 15  2  0
 11 16  1  0
 16 17  1  0
 15 18  1  0
 17 18  2  0
 17 19  1  0
 19 20  1  0
M  END
