mac-x0572-mac-x0193
     RDKit          3D

 30 32  0  0  0  0  0  0  0  0999 V2000
   -8.0150   14.7220    3.3450 C   0  0  0  0  0  0  0  0  0  0  0  0
   -7.2610   14.7560    2.0400 C   0  0  0  0  0  0  0  0  0  0  0  0
   -5.9120   15.0060    2.1860 N   0  0  0  0  0  0  0  0  0  0  0  0
   -7.8740   14.5660    0.8550 C   0  0  0  0  0  0  0  0  0  0  0  0
   -9.2230   14.3250    0.6950 O   0  0  0  0  0  0  0  0  0  0  0  0
   -7.0190   14.6190   -0.3570 C   0  0  0  0  0  0  0  0  0  0  0  0
   -5.0990   14.7770    1.2050 C   0  0  0  0  0  0  0  0  0  0  0  0
   -7.5180   14.9330   -1.4370 O   0  0  0  0  0  0  0  0  0  0  0  0
   -5.5820   14.2430   -0.1230 C   0  0  2  0  0  0  0  0  0  0  0  0
   -3.6500   15.0220    1.3910 C   0  0  0  0  0  0  0  0  0  0  0  0
   -2.8590   15.0450    0.3140 C   0  0  0  0  0  0  0  0  0  0  0  0
   -4.6260   14.4950   -1.2540 C   0  0  0  0  0  0  0  0  0  0  0  0
   -3.3510   14.8500   -1.0430 C   0  0  0  0  0  0  0  0  0  0  0  0
   -2.3790   15.0520   -2.1750 C   0  0  0  0  0  0  0  0  0  0  0  0
   -1.8140   13.8030   -2.8050 C   0  0  0  0  0  0  0  0  0  0  0  0
   -0.3090   13.7630   -2.5270 C   0  0  0  0  0  0  0  0  0  0  0  0
   -0.0300   12.3820   -2.2730 N   0  0  0  0  0  0  0  0  0  0  0  0
    0.3680   11.6360   -3.2150 C   0  0  0  0  0  0  0  0  0  0  0  0
    0.5600   10.3310   -3.0180 O   0  0  0  0  0  0  0  0  0  0  0  0
    0.6410   12.1590   -4.6380 C   0  0  0  0  0  0  0  0  0  0  0  0
    0.0370   11.2960   -5.6440 N   0  0  0  0  0  0  0  0  0  0  0  0
    0.6530   11.1700   -6.8730 C   0  0  0  0  0  0  0  0  0  0  0  0
    1.7520   11.6060   -7.1010 O   0  0  0  0  0  0  0  0  0  0  0  0
   -0.1630   10.4930   -7.7590 N   0  0  0  0  0  0  0  0  0  0  0  0
    0.2660    9.6720   -8.9080 C   0  0  0  0  0  0  0  0  0  0  0  0
    1.3410    8.6490   -8.5570 C   0  0  0  0  0  0  0  0  0  0  0  0
    0.6480   10.4960  -10.1410 C   0  0  0  0  0  0  0  0  0  0  0  0
    2.0730    8.0920   -9.7880 C   0  0  0  0  0  0  0  0  0  0  0  0
    0.8520    9.6300  -11.3890 C   0  0  0  0  0  0  0  0  0  0  0  0
    1.2190    8.1860  -11.0480 C   0  0  0  0  0  0  0  0  0  0  0  0
  1  2  1  0
  2  3  1  0
  2  4  2  0
  4  5  1  0
  4  6  1  0
  3  7  2  0
  6  8  2  0
  6  9  1  0
  7  9  1  0
  7 10  1  0
 10 11  2  0
  9 12  1  6
 11 13  1  0
 12 13  2  0
 13 14  1  0
 14 15  1  0
 15 16  1  0
 16 17  1  0
 17 18  2  3
 18 19  1  0
 18 20  1  0
 20 21  1  0
 21 22  1  0
 22 23  2  0
 22 24  1  0
 24 25  1  0
 25 26  1  0
 25 27  1  0
 26 28  1  0
 27 29  1  0
 28 30  1  0
 29 30  1  0
M  END
