mac-x0255-mac-x0436
     RDKit          3D

 25 28  0  0  0  0  0  0  0  0999 V2000
    1.7130   13.5060   -1.9690 O   0  0  0  0  0  0  0  0  0  0  0  0
    0.9570   12.5900   -2.5900 C   0  0  0  0  0  0  0  0  0  0  0  0
    0.8060   11.4850   -2.0960 O   0  0  0  0  0  0  0  0  0  0  0  0
    0.3200   13.0290   -3.8830 C   0  0  2  0  0  0  0  0  0  0  0  0
    0.8200   12.4070   -5.1340 C   0  0  0  0  0  0  0  0  0  0  0  0
    0.0680   14.4170   -4.2920 C   0  0  0  0  0  0  0  0  0  0  0  0
    0.8350   15.5400   -4.4860 C   0  0  0  0  0  0  0  0  0  0  0  0
   -1.5710   14.6530   -4.6430 S   0  0  0  0  0  0  0  0  0  0  0  0
   -0.1760   11.4120   -5.6310 C   0  0  0  0  0  0  0  0  0  0  0  0
    0.0370   16.6270   -4.9650 C   0  0  0  0  0  0  0  0  0  0  0  0
   -1.3050   16.2560   -5.0930 C   0  0  0  0  0  0  0  0  0  0  0  0
   -1.5480   11.2880   -4.9280 C   0  0  0  0  0  0  0  0  0  0  0  0
    0.1760   10.6860   -6.6190 N   0  0  0  0  0  0  0  0  0  0  0  0
   -1.9470   12.1090   -4.1150 O   0  0  0  0  0  0  0  0  0  0  0  0
    0.3750   17.9420   -5.3190 C   0  0  0  0  0  0  0  0  0  0  0  0
   -2.2920   17.1140   -5.5440 C   0  0  0  0  0  0  0  0  0  0  0  0
   -2.2820   10.1940   -5.2900 N   0  0  0  0  0  0  0  0  0  0  0  0
   -0.6950    9.7020   -7.0400 C   0  0  0  0  0  0  0  0  0  0  0  0
   -0.6190   18.8090   -5.7810 C   0  0  0  0  0  0  0  0  0  0  0  0
   -1.9350   18.4020   -5.8900 C   0  0  0  0  0  0  0  0  0  0  0  0
   -1.9120    9.4360   -6.3980 C   0  0  0  0  0  0  0  0  0  0  0  0
   -0.3170    8.9540   -8.1420 C   0  0  0  0  0  0  0  0  0  0  0  0
   -1.1440    7.9380   -8.6080 C   0  0  0  0  0  0  0  0  0  0  0  0
   -2.7460    8.4210   -6.8550 C   0  0  0  0  0  0  0  0  0  0  0  0
   -2.3550    7.6720   -7.9640 C   0  0  0  0  0  0  0  0  0  0  0  0
  1  2  1  0
  2  3  2  0
  2  4  1  0
  4  5  1  6
  4  6  1  0
  6  7  2  0
  6  8  1  0
  5  9  1  0
  7 10  1  0
  8 11  1  0
 10 11  2  0
  9 12  1  0
  9 13  2  0
 12 14  2  0
 10 15  1  0
 11 16  1  0
 12 17  1  0
 13 18  1  0
 15 19  2  0
 16 20  2  0
 19 20  1  0
 17 21  1  0
 18 21  2  0
 18 22  1  0
 22 23  2  0
 21 24  1  0
 23 25  1  0
 24 25  2  0
M  END
