mac-x0555-diamond-x0837_0_A
     RDKit          3D

 13 14  0  0  0  0  0  0  0  0999 V2000
   -7.1630   14.3750    2.8650 N   0  0  0  0  0  0  0  0  0  0  0  0
   -7.0610   13.8430    1.5040 C   0  0  1  0  0  0  0  0  0  0  0  0
   -8.0040   14.6820    0.6020 C   0  0  0  0  0  0  0  0  0  0  0  0
   -5.6030   13.7580    0.9910 C   0  0  0  0  0  0  0  0  0  0  0  0
   -5.1260   15.1310    0.5550 C   0  0  2  0  0  0  0  0  0  0  0  0
   -7.4080   15.1620   -0.6410 N   0  0  0  0  0  0  0  0  0  0  0  0
   -5.9560   15.5010   -0.6810 C   0  0  2  0  0  0  0  0  0  0  0  0
   -3.6590   15.2190    0.2860 C   0  0  0  0  0  0  0  0  0  0  0  0
   -5.4840   14.7180   -1.8820 C   0  0  0  0  0  0  0  0  0  0  0  0
   -3.1520   14.8930   -0.8970 C   0  0  0  0  0  0  0  0  0  0  0  0
   -6.3380   14.3010   -2.6480 O   0  0  0  0  0  0  0  0  0  0  0  0
   -3.9850   14.4030   -2.0300 C   0  0  2  0  0  0  0  0  0  0  0  0
   -3.1560   15.1210   -3.8370 I   0  0  0  0  0  0  0  0  0  0  0  0
  2  1  1  1
  2  3  1  0
  2  4  1  0
  5  4  1  6
  3  6  1  0
  5  7  1  0
  7  6  1  1
  5  8  1  0
  7  9  1  0
  8 10  2  0
  9 11  2  0
  9 12  1  0
 10 12  1  0
 12 13  1  6
M  END
