mac-x0546-mac-x0354
     RDKit          3D

 27 30  0  0  0  0  0  0  0  0999 V2000
   -4.4440   15.3990   -6.0670 C   0  0  0  0  0  0  0  0  0  0  0  0
   -3.6640   16.5550   -5.7600 O   0  0  0  0  0  0  0  0  0  0  0  0
   -2.3540   16.3370   -5.5550 C   0  0  0  0  0  0  0  0  0  0  0  0
   -1.8730   15.2230   -5.0240 C   0  0  0  0  0  0  0  0  0  0  0  0
   -1.4680   17.4200   -6.0000 C   0  0  0  0  0  0  0  0  0  0  0  0
   -0.4290   15.0490   -4.9200 C   0  0  1  0  0  0  0  0  0  0  0  0
   -0.1450   17.4680   -5.7140 C   0  0  0  0  0  0  0  0  0  0  0  0
    0.3250   16.3500   -4.8880 C   0  0  0  0  0  0  0  0  0  0  0  0
    0.2240   14.4290   -3.7750 C   0  0  0  0  0  0  0  0  0  0  0  0
   -0.2720   13.1580   -3.1820 C   0  0  0  0  0  0  0  0  0  0  0  0
    1.3530   16.3730   -4.1210 N   0  0  0  0  0  0  0  0  0  0  0  0
    1.2690   15.1870   -3.4260 C   0  0  0  0  0  0  0  0  0  0  0  0
    0.6330   11.9750   -3.3420 C   0  0  0  0  0  0  0  0  0  0  0  0
    1.7450   12.2180   -2.5140 O   0  0  0  0  0  0  0  0  0  0  0  0
    0.0110   10.8040   -2.8110 O   0  0  0  0  0  0  0  0  0  0  0  0
    0.8930   11.8850   -4.8040 C   0  0  0  0  0  0  0  0  0  0  0  0
    1.9170   12.6070   -5.4460 C   0  0  0  0  0  0  0  0  0  0  0  0
    0.2900   11.1680   -5.8410 C   0  0  0  0  0  0  0  0  0  0  0  0
    0.9700   11.5010   -6.9680 N   0  0  0  0  0  0  0  0  0  0  0  0
    1.9570   12.3700   -6.7370 N   0  0  0  0  0  0  0  0  0  0  0  0
   -0.8090   10.2310   -5.8960 C   0  0  0  0  0  0  0  0  0  0  0  0
    0.7040   11.0050   -8.3010 C   0  0  0  0  0  0  0  0  0  0  0  0
   -0.6080    8.9740   -6.4860 C   0  0  0  0  0  0  0  0  0  0  0  0
   -2.0590   10.5620   -5.3750 C   0  0  0  0  0  0  0  0  0  0  0  0
   -1.6520    8.0590   -6.5510 C   0  0  0  0  0  0  0  0  0  0  0  0
   -3.1030    9.6430   -5.4420 C   0  0  0  0  0  0  0  0  0  0  0  0
   -2.9000    8.3940   -6.0280 C   0  0  0  0  0  0  0  0  0  0  0  0
  1  2  1  0
  2  3  1  0
  3  4  2  0
  3  5  1  0
  6  4  1  1
  5  7  2  0
  6  8  1  0
  7  8  1  0
  6  9  1  0
  9 10  1  0
  8 11  2  0
  9 12  2  0
 11 12  1  0
 10 13  1  0
 13 14  1  0
 13 15  1  0
 13 16  1  0
 16 17  1  0
 16 18  2  0
 18 19  1  0
 17 20  2  0
 19 20  1  0
 18 21  1  0
 19 22  1  0
 21 23  2  0
 21 24  1  0
 23 25  1  0
 24 26  2  0
 25 27  2  0
 26 27  1  0
M  END
