mac-x0572-diamond-x1012_0_A
     RDKit          3D

 27 29  0  0  0  0  0  0  0  0999 V2000
   -7.8940   14.4840    3.1980 C   0  0  0  0  0  0  0  0  0  0  0  0
   -7.1520   14.6080    1.8880 C   0  0  0  0  0  0  0  0  0  0  0  0
   -5.8020   14.8180    2.0360 N   0  0  0  0  0  0  0  0  0  0  0  0
   -7.7800   14.5180    0.7040 C   0  0  0  0  0  0  0  0  0  0  0  0
   -9.1350   14.3080    0.5650 O   0  0  0  0  0  0  0  0  0  0  0  0
   -6.9540   14.6690   -0.5320 C   0  0  0  0  0  0  0  0  0  0  0  0
   -5.0770   15.1850    1.0260 C   0  0  0  0  0  0  0  0  0  0  0  0
   -7.3810   14.2000   -1.5860 O   0  0  0  0  0  0  0  0  0  0  0  0
   -5.6530   15.4140   -0.3590 C   0  0  1  0  0  0  0  0  0  0  0  0
   -3.6330   15.4030    1.2450 C   0  0  0  0  0  0  0  0  0  0  0  0
   -2.8340   15.5110    0.1800 C   0  0  0  0  0  0  0  0  0  0  0  0
   -4.6430   15.3420   -1.4360 C   0  0  0  0  0  0  0  0  0  0  0  0
   -3.3310   15.4080   -1.1860 C   0  0  0  0  0  0  0  0  0  0  0  0
   -2.3640   15.3810   -2.3280 C   0  0  0  0  0  0  0  0  0  0  0  0
   -3.0190   15.8070   -3.6510 C   0  0  0  0  0  0  0  0  0  0  0  0
   -2.4190   17.0430   -4.1340 N   0  0  0  0  0  0  0  0  0  0  0  0
   -1.2630   16.9540   -4.6260 C   0  0  0  0  0  0  0  0  0  0  0  0
   -0.6850   18.1150   -5.0210 N   0  0  0  0  0  0  0  0  0  0  0  0
   -0.5090   15.8240   -4.8090 N   0  0  0  0  0  0  0  0  0  0  0  0
   -1.1680   14.5530   -5.1480 C   0  0  0  0  0  0  0  0  0  0  0  0
    0.8990   15.7430   -4.4290 C   0  0  0  0  0  0  0  0  0  0  0  0
   -1.0700   13.5580   -4.0070 C   0  0  0  0  0  0  0  0  0  0  0  0
    1.1230   14.6910   -3.3360 C   0  0  0  0  0  0  0  0  0  0  0  0
    0.3950   13.3570   -3.6090 C   0  0  0  0  0  0  0  0  0  0  0  0
    0.4580   12.4420   -2.4010 C   0  0  0  0  0  0  0  0  0  0  0  0
    0.3540   11.1450   -2.7460 O   0  0  0  0  0  0  0  0  0  0  0  0
    0.5760   12.7590   -1.2290 O   0  0  0  0  0  0  0  0  0  0  0  0
  1  2  1  0
  2  3  1  0
  2  4  2  0
  4  5  1  0
  4  6  1  0
  3  7  2  0
  6  8  2  0
  6  9  1  0
  7  9  1  0
  7 10  1  0
 10 11  2  0
  9 12  1  6
 11 13  1  0
 12 13  2  0
 13 14  1  0
 14 15  1  0
 15 16  1  0
 16 17  2  3
 17 18  1  0
 17 19  1  0
 19 20  1  0
 19 21  1  0
 20 22  1  0
 21 23  1  0
 22 24  1  0
 23 24  1  0
 24 25  1  0
 25 26  1  0
 25 27  2  0
M  END
