mac-x0437-mac-x0398
     RDKit          3D

 27 29  0  0  0  0  0  0  0  0999 V2000
    1.6970   12.9250   -2.2740 O   0  0  0  0  0  0  0  0  0  0  0  0
    1.2090   12.2420   -3.3230 C   0  0  0  0  0  0  0  0  0  0  0  0
    0.5870   11.2050   -3.1520 O   0  0  0  0  0  0  0  0  0  0  0  0
    1.5250   12.9090   -4.6440 C   0  0  0  0  0  0  0  0  0  0  0  0
    0.2480   13.3430   -5.3990 C   0  0  2  0  0  0  0  0  0  0  0  0
   -0.4700   14.4880   -4.6090 C   0  0  0  0  0  0  0  0  0  0  0  0
   -0.5720   12.1850   -5.8000 N   0  0  0  0  0  0  0  0  0  0  0  0
   -1.4420   14.0120   -3.5180 C   0  0  0  0  0  0  0  0  0  0  0  0
   -1.8490   11.9750   -5.3690 C   0  0  0  0  0  0  0  0  0  0  0  0
   -0.2670   11.1300   -6.6390 C   0  0  0  0  0  0  0  0  0  0  0  0
   -1.9950   15.0570   -2.6970 O   0  0  0  0  0  0  0  0  0  0  0  0
   -2.3790   10.8720   -5.8420 N   0  0  0  0  0  0  0  0  0  0  0  0
   -1.4100   10.3330   -6.6300 C   0  0  0  0  0  0  0  0  0  0  0  0
    0.8560   10.7840   -7.3930 C   0  0  0  0  0  0  0  0  0  0  0  0
   -3.3430   15.2200   -2.8320 C   0  0  0  0  0  0  0  0  0  0  0  0
   -1.4530    9.1450   -7.3770 C   0  0  0  0  0  0  0  0  0  0  0  0
    0.7970    9.5980   -8.1400 C   0  0  0  0  0  0  0  0  0  0  0  0
   -3.8760   15.4260   -3.9070 O   0  0  0  0  0  0  0  0  0  0  0  0
   -0.3350    8.7900   -8.1320 C   0  0  0  0  0  0  0  0  0  0  0  0
   -4.0750   15.1120   -1.5280 C   0  0  0  0  0  0  0  0  0  0  0  0
   -5.4700   15.1330   -1.5330 C   0  0  0  0  0  0  0  0  0  0  0  0
   -3.4150   14.9870   -0.2920 C   0  0  0  0  0  0  0  0  0  0  0  0
   -6.1580   15.2530   -2.7060 O   0  0  0  0  0  0  0  0  0  0  0  0
   -6.1980   15.0310   -0.3510 C   0  0  0  0  0  0  0  0  0  0  0  0
   -4.1490   14.8860    0.8970 C   0  0  0  0  0  0  0  0  0  0  0  0
   -5.5510   14.9070    0.8720 C   0  0  0  0  0  0  0  0  0  0  0  0
   -6.2980   14.8070    2.0480 N   0  0  0  0  0  0  0  0  0  0  0  0
  1  2  1  0
  2  3  2  0
  2  4  1  0
  5  4  1  1
  5  6  1  0
  5  7  1  0
  6  8  1  0
  7  9  1  0
  7 10  1  0
  8 11  1  0
  9 12  2  0
 10 13  2  0
 12 13  1  0
 10 14  1  0
 11 15  1  0
 13 16  1  0
 14 17  2  0
 15 18  2  0
 16 19  2  0
 17 19  1  0
 15 20  1  0
 20 21  2  0
 20 22  1  0
 21 23  1  0
 21 24  1  0
 22 25  2  0
 24 26  2  0
 25 26  1  0
 26 27  1  0
M  END
