mac-x0361-diamond-x0962_2_B
     RDKit          3D

 19 20  0  0  0  0  0  0  0  0999 V2000
   -6.6780   14.6600    1.2220 N   0  0  0  0  0  0  0  0  0  0  0  0
   -6.6320   14.8520   -0.1420 C   0  0  0  0  0  0  0  0  0  0  0  0
   -7.7000   15.0240   -0.8560 N   0  0  0  0  0  0  0  0  0  0  0  0
   -5.3330   14.8800   -0.8290 C   0  0  0  0  0  0  0  0  0  0  0  0
   -9.1220   15.0830   -0.5370 C   0  0  0  0  0  0  0  0  0  0  0  0
   -4.1060   14.7170   -0.1900 C   0  0  0  0  0  0  0  0  0  0  0  0
   -5.4130   15.0890   -2.2050 C   0  0  0  0  0  0  0  0  0  0  0  0
   -9.5370   14.4360    0.7730 C   0  0  0  0  0  0  0  0  0  0  0  0
   -2.9430   14.7680   -0.9620 C   0  0  0  0  0  0  0  0  0  0  0  0
   -4.2570   15.1360   -2.9660 C   0  0  0  0  0  0  0  0  0  0  0  0
  -10.0930   15.3630    1.8590 C   0  0  2  0  0  0  0  0  0  0  0  0
   -3.0360   14.9780   -2.3430 C   0  0  0  0  0  0  0  0  0  0  0  0
   -1.8880   15.0240   -3.0710 O   0  0  0  0  0  0  0  0  0  0  0  0
  -10.3180   16.7220    1.3820 N   0  0  0  0  0  0  0  0  0  0  0  0
   -9.2290   15.3220    3.0520 C   0  0  0  0  0  0  0  0  0  0  0  0
   -9.0940   16.3460    3.9560 N   0  0  0  0  0  0  0  0  0  0  0  0
   -8.4100   14.3280    3.5170 C   0  0  0  0  0  0  0  0  0  0  0  0
   -8.2150   15.9230    4.9100 C   0  0  0  0  0  0  0  0  0  0  0  0
   -7.7900   14.7080    4.6710 N   0  0  0  0  0  0  0  0  0  0  0  0
  1  2  1  0
  2  3  2  3
  2  4  1  0
  3  5  1  0
  4  6  2  0
  4  7  1  0
  5  8  1  0
  6  9  1  0
  7 10  2  0
  8 11  1  0
  9 12  2  0
 10 12  1  0
 12 13  1  0
 11 14  1  6
 11 15  1  0
 15 16  1  0
 15 17  2  0
 16 18  1  0
 17 19  1  0
 18 19  2  0
M  END
