mac-x0306-mac-x0213
     RDKit          3D

 25 28  0  0  0  0  0  0  0  0999 V2000
    0.2490   11.8220   -3.3310 O   0  0  0  0  0  0  0  0  0  0  0  0
   -0.2080   12.8660   -2.4980 C   0  0  0  0  0  0  0  0  0  0  0  0
    0.7190   12.9230   -1.4120 O   0  0  0  0  0  0  0  0  0  0  0  0
   -1.5350   12.4470   -1.8300 C   0  0  0  0  0  0  0  0  0  0  0  0
   -0.3180   14.2550   -3.1780 C   0  0  0  0  0  0  0  0  0  0  0  0
   -2.8490   13.1350   -2.2430 C   0  0  0  0  0  0  0  0  0  0  0  0
   -1.4470   14.2960   -4.2360 C   0  0  0  0  0  0  0  0  0  0  0  0
    0.8560   14.9390   -3.9180 C   0  0  0  0  0  0  0  0  0  0  0  0
   -3.0510   14.5470   -1.8100 N   0  0  0  0  0  0  0  0  0  0  0  0
   -1.2590   15.6730   -4.7400 C   0  0  0  0  0  0  0  0  0  0  0  0
    0.0720   16.0600   -4.5640 C   0  0  0  0  0  0  0  0  0  0  0  0
   -4.1600   15.1980   -2.3710 C   0  0  0  0  0  0  0  0  0  0  0  0
   -2.9430   14.8240   -0.4440 C   0  0  0  0  0  0  0  0  0  0  0  0
   -2.2000   16.5160   -5.3060 C   0  0  0  0  0  0  0  0  0  0  0  0
    0.4850   17.3170   -4.9640 C   0  0  0  0  0  0  0  0  0  0  0  0
   -5.3260   15.2280   -1.7080 C   0  0  0  0  0  0  0  0  0  0  0  0
   -4.0400   14.8360    0.3270 C   0  0  0  0  0  0  0  0  0  0  0  0
   -1.7890   17.7800   -5.7100 C   0  0  0  0  0  0  0  0  0  0  0  0
   -0.4530   18.1790   -5.5400 C   0  0  0  0  0  0  0  0  0  0  0  0
   -5.3500   14.5320   -0.3620 C   0  0  0  0  0  0  0  0  0  0  0  0
   -6.6200   14.6380    0.4490 C   0  0  0  0  0  0  0  0  0  0  0  0
   -6.6380   14.5460    1.8270 N   0  0  0  0  0  0  0  0  0  0  0  0
   -7.8470   14.8120   -0.0090 N   0  0  0  0  0  0  0  0  0  0  0  0
   -8.6620   14.8350    1.0880 C   0  0  0  0  0  0  0  0  0  0  0  0
   -7.9340   14.6720    2.2390 C   0  0  0  0  0  0  0  0  0  0  0  0
  2  1  1  0
  2  3  1  0
  2  4  1  0
  2  5  1  0
  4  6  1  0
  5  7  1  0
  5  8  1  0
  6  9  1  0
  7 10  1  0
  8 11  1  0
 10 11  2  0
  9 12  1  0
  9 13  1  0
 10 14  1  0
 11 15  1  0
 12 16  2  0
 13 17  2  0
 14 18  2  0
 15 19  2  0
 18 19  1  0
 16 20  1  0
 17 20  1  0
 20 21  1  0
 21 22  1  0
 21 23  2  0
 23 24  1  0
 22 25  1  0
 24 25  2  0
M  END
