mac-x0347-mac-x0555
     RDKit          3D

 21 23  0  0  0  0  0  0  0  0999 V2000
    1.0340   14.5310   -3.3880 O   0  0  0  0  0  0  0  0  0  0  0  0
    0.3170   13.9750   -2.3920 C   0  0  0  0  0  0  0  0  0  0  0  0
    0.8700   13.4790   -1.4370 O   0  0  0  0  0  0  0  0  0  0  0  0
   -1.1430   14.0430   -2.6110 C   0  0  0  0  0  0  0  0  0  0  0  0
   -2.1250   13.8600   -1.6090 C   0  0  0  0  0  0  0  0  0  0  0  0
   -1.5610   14.3080   -3.9000 C   0  0  0  0  0  0  0  0  0  0  0  0
   -3.5190   13.9540   -1.9340 C   0  0  0  0  0  0  0  0  0  0  0  0
   -2.8570   14.4030   -4.2620 N   0  0  0  0  0  0  0  0  0  0  0  0
   -3.7870   14.2250   -3.2870 C   0  0  0  0  0  0  0  0  0  0  0  0
   -4.7030   13.8250   -0.8870 C   0  0  2  0  0  0  0  0  0  0  0  0
   -5.1760   12.6040   -0.1490 C   0  0  0  0  0  0  0  0  0  0  0  0
   -5.8230   14.4600   -1.6020 C   0  0  0  0  0  0  0  0  0  0  0  0
   -4.2610   14.9530   -0.0520 C   0  0  0  0  0  0  0  0  0  0  0  0
   -4.4990   15.4220    1.1560 C   0  0  0  0  0  0  0  0  0  0  0  0
   -5.7380   12.5700    1.0740 C   0  0  0  0  0  0  0  0  0  0  0  0
   -5.4900   15.5120   -2.2580 C   0  0  0  0  0  0  0  0  0  0  0  0
   -3.4530   15.5080   -1.0180 C   0  0  0  0  0  0  0  0  0  0  0  0
   -5.4490   14.8530    2.0410 C   0  0  0  0  0  0  0  0  0  0  0  0
   -6.0170   13.6460    2.0120 C   0  0  0  0  0  0  0  0  0  0  0  0
   -4.0830   15.8090   -2.1680 C   0  0  0  0  0  0  0  0  0  0  0  0
   -6.9700   13.3350    2.9540 N   0  0  0  0  0  0  0  0  0  0  0  0
  1  2  1  0
  2  3  2  0
  2  4  1  0
  4  5  2  0
  4  6  1  0
  5  7  1  0
  6  8  2  0
  7  9  2  0
  8  9  1  0
 10  7  1  6
 10 11  1  0
 10 12  1  0
 10 13  1  0
 13 14  2  0
 11 15  2  0
 12 16  2  0
 13 17  1  0
 14 18  1  0
 15 19  1  0
 18 19  2  0
 16 20  1  0
 17 20  2  0
 19 21  1  0
M  END
