mac-x0392-mac-x0263
     RDKit          3D

 22 24  0  0  0  0  0  0  0  0999 V2000
    0.1900   13.8080    0.4740 N   0  0  0  0  0  0  0  0  0  0  0  0
   -0.9990   14.5510    0.0360 C   0  0  2  0  0  0  0  0  0  0  0  0
   -1.9940   14.8510    1.1840 C   0  0  0  0  0  0  0  0  0  0  0  0
   -1.7190   13.7940   -1.0640 C   0  0  2  0  0  0  0  0  0  0  0  0
   -1.3840   14.4600   -2.3960 C   0  0  0  0  0  0  0  0  0  0  0  0
   -3.2420   13.5970   -0.7700 C   0  0  0  0  0  0  0  0  0  0  0  0
   -3.2300   15.5540    0.7950 N   0  0  0  0  0  0  0  0  0  0  0  0
   -2.1400   14.7130   -3.3180 O   0  0  0  0  0  0  0  0  0  0  0  0
   -0.0730   14.7720   -2.5020 O   0  0  0  0  0  0  0  0  0  0  0  0
   -3.9890   14.8270   -0.2200 C   0  0  2  0  0  0  0  0  0  0  0  0
   -5.4310   14.6560    0.2300 C   0  0  0  0  0  0  0  0  0  0  0  0
   -4.3110   15.5920   -1.5470 C   0  0  0  0  0  0  0  0  0  0  0  0
   -6.2610   15.1610   -0.7020 C   0  0  0  0  0  0  0  0  0  0  0  0
   -6.1500   14.1660    1.2770 N   0  0  0  0  0  0  0  0  0  0  0  0
   -5.6430   15.7010   -1.7910 C   0  0  0  0  0  0  0  0  0  0  0  0
   -7.4270   14.4000    0.9450 C   0  0  0  0  0  0  0  0  0  0  0  0
   -7.5220   15.0070   -0.2900 N   0  0  0  0  0  0  0  0  0  0  0  0
   -8.6500   14.0980    1.7530 C   0  0  0  0  0  0  0  0  0  0  0  0
   -9.3590   15.4320    2.0490 C   0  0  0  0  0  0  0  0  0  0  0  0
  -10.6820   15.3060    2.7620 C   0  0  0  0  0  0  0  0  0  0  0  0
  -11.3630   14.1900    2.4430 O   0  0  0  0  0  0  0  0  0  0  0  0
  -11.1320   16.1210    3.5540 O   0  0  0  0  0  0  0  0  0  0  0  0
  2  1  1  1
  2  3  1  0
  2  4  1  0
  4  5  1  6
  4  6  1  0
  3  7  1  0
  5  8  2  0
  5  9  1  0
 10  6  1  6
  7 10  1  0
 10 11  1  0
 10 12  1  0
 11 13  2  0
 11 14  1  0
 12 15  2  0
 13 15  1  0
 14 16  2  0
 13 17  1  0
 16 17  1  0
 16 18  1  0
 18 19  1  0
 19 20  1  0
 20 21  1  0
 20 22  2  0
M  END
