mac-x0555-mac-x0228
     RDKit          3D

 14 15  0  0  0  0  0  0  0  0999 V2000
   -7.1820   14.4380    2.8370 N   0  0  0  0  0  0  0  0  0  0  0  0
   -6.7950   14.5910    1.5070 C   0  0  0  0  0  0  0  0  0  0  0  0
   -7.7000   14.7390    0.4670 C   0  0  0  0  0  0  0  0  0  0  0  0
   -5.4390   14.6030    1.1590 C   0  0  0  0  0  0  0  0  0  0  0  0
   -5.0340   14.7480   -0.1640 C   0  0  0  0  0  0  0  0  0  0  0  0
   -7.3500   14.8930   -0.8280 N   0  0  0  0  0  0  0  0  0  0  0  0
   -6.0420   14.8940   -1.1310 C   0  0  0  0  0  0  0  0  0  0  0  0
   -3.6680   14.7400   -0.5320 C   0  0  0  0  0  0  0  0  0  0  0  0
   -5.6640   15.0420   -2.4480 C   0  0  0  0  0  0  0  0  0  0  0  0
   -3.3290   14.8750   -1.8890 C   0  0  0  0  0  0  0  0  0  0  0  0
   -1.9460   14.8480   -2.4130 C   0  0  0  0  0  0  0  0  0  0  0  0
   -4.3280   15.0330   -2.8320 C   0  0  0  0  0  0  0  0  0  0  0  0
   -1.0010   14.6920   -1.4680 O   0  0  0  0  0  0  0  0  0  0  0  0
   -1.7000   14.9480   -3.6080 O   0  0  0  0  0  0  0  0  0  0  0  0
  1  2  1  0
  2  3  2  0
  2  4  1  0
  4  5  2  0
  3  6  1  0
  5  7  1  0
  6  7  2  0
  5  8  1  0
  7  9  1  0
  8 10  2  0
 10 11  1  0
  9 12  2  0
 10 12  1  0
 11 13  1  0
 11 14  2  0
M  END
