mac-x0441-mac-x0398
     RDKit          3D

 30 32  0  0  0  0  0  0  0  0999 V2000
    0.6270   10.8570   -2.8420 O   0  0  0  0  0  0  0  0  0  0  0  0
    0.7910   12.0720   -3.4050 C   0  0  0  0  0  0  0  0  0  0  0  0
    1.6840   12.8200   -3.0370 O   0  0  0  0  0  0  0  0  0  0  0  0
   -0.2140   12.4290   -4.4690 C   0  0  1  0  0  0  0  0  0  0  0  0
   -0.5990   13.9150   -4.4280 C   0  0  0  0  0  0  0  0  0  0  0  0
   -0.1300   11.6890   -5.7530 N   0  0  0  0  0  0  0  0  0  0  0  0
   -1.1510   14.2000   -3.0070 C   0  0  0  0  0  0  0  0  0  0  0  0
    0.7690   11.8470   -6.8030 N   0  0  0  0  0  0  0  0  0  0  0  0
   -1.0130   10.7060   -5.9950 C   0  0  0  0  0  0  0  0  0  0  0  0
   -2.0480   15.3200   -2.8860 O   0  0  0  0  0  0  0  0  0  0  0  0
    0.3690   10.8770   -7.7150 C   0  0  0  0  0  0  0  0  0  0  0  0
   -0.7330   10.1700   -7.2100 C   0  0  0  0  0  0  0  0  0  0  0  0
   -2.1090   10.2750   -5.0860 C   0  0  0  0  0  0  0  0  0  0  0  0
    0.9090   10.4850   -9.0890 C   0  0  0  0  0  0  0  0  0  0  0  0
   -3.3940   15.1140   -2.9680 C   0  0  0  0  0  0  0  0  0  0  0  0
   -1.5000    9.0520   -7.8120 C   0  0  0  0  0  0  0  0  0  0  0  0
   -3.1290    9.4610   -5.8880 C   0  0  0  0  0  0  0  0  0  0  0  0
    1.5930    9.3110   -9.0680 F   0  0  0  0  0  0  0  0  0  0  0  0
   -0.1190   10.2670   -9.9410 F   0  0  0  0  0  0  0  0  0  0  0  0
    1.6560   11.3690   -9.7640 F   0  0  0  0  0  0  0  0  0  0  0  0
   -3.9980   14.9920   -4.0150 O   0  0  0  0  0  0  0  0  0  0  0  0
   -2.4400    8.4090   -6.7710 C   0  0  0  0  0  0  0  0  0  0  0  0
   -4.0580   15.0680   -1.6270 C   0  0  0  0  0  0  0  0  0  0  0  0
   -5.4510   15.1300   -1.5810 C   0  0  0  0  0  0  0  0  0  0  0  0
   -3.3470   14.9600   -0.4160 C   0  0  0  0  0  0  0  0  0  0  0  0
   -6.1670   15.2340   -2.7360 O   0  0  0  0  0  0  0  0  0  0  0  0
   -6.1350   15.0820   -0.3720 C   0  0  0  0  0  0  0  0  0  0  0  0
   -4.0450   14.9140    0.8070 C   0  0  0  0  0  0  0  0  0  0  0  0
   -5.4450   14.9730    0.8280 C   0  0  0  0  0  0  0  0  0  0  0  0
   -6.1680   14.9250    2.0240 N   0  0  0  0  0  0  0  0  0  0  0  0
  1  2  1  0
  2  3  2  0
  2  4  1  0
  4  5  1  6
  4  6  1  0
  5  7  1  0
  6  8  1  0
  6  9  1  0
  7 10  1  0
  8 11  2  0
  9 12  2  0
 11 12  1  0
  9 13  1  0
 11 14  1  0
 10 15  1  0
 12 16  1  0
 13 17  1  0
 14 18  1  0
 14 19  1  0
 14 20  1  0
 15 21  2  0
 16 22  1  0
 17 22  1  0
 15 23  1  0
 23 24  2  0
 23 25  1  0
 24 26  1  0
 24 27  1  0
 25 28  2  0
 27 29  2  0
 28 29  1  0
 29 30  1  0
M  END
