mac-x0142-mac-x0441
     RDKit          3D

 33 38  0  0  0  0  0  0  0  0999 V2000
    0.2620   10.7700   -3.3010 O   0  0  0  0  0  0  0  0  0  0  0  0
    0.7980   11.5030   -2.3290 C   0  0  0  0  0  0  0  0  0  0  0  0
    1.5460   12.4830   -2.6050 N   0  0  0  0  0  0  0  0  0  0  0  0
    1.5690   12.5370   -4.0220 C   0  0  2  0  0  0  0  0  0  0  0  0
    2.2300   13.5330   -4.8410 C   0  0  0  0  0  0  0  0  0  0  0  0
    0.7560   13.7010   -4.5030 C   0  0  1  0  0  0  0  0  0  0  0  0
   -0.4660   12.9500   -5.0120 C   0  0  1  0  0  0  0  0  0  0  0  0
    0.4380   14.8310   -3.5230 C   0  0  0  0  0  0  0  0  0  0  0  0
   -1.7350   13.7980   -5.1440 C   0  0  0  0  0  0  0  0  0  0  0  0
   -0.8940   14.6280   -2.9210 N   0  0  0  0  0  0  0  0  0  0  0  0
   -0.2990   11.9740   -6.1220 N   0  0  0  0  0  0  0  0  0  0  0  0
   -1.9800   14.6780   -3.9110 C   0  0  0  0  0  0  0  0  0  0  0  0
   -1.1430   14.7470   -1.5200 C   0  0  0  0  0  0  0  0  0  0  0  0
    0.5800   12.0780   -7.1700 N   0  0  0  0  0  0  0  0  0  0  0  0
   -1.0300   10.8430   -6.2140 C   0  0  0  0  0  0  0  0  0  0  0  0
   -0.1210   14.6970   -0.5730 N   0  0  0  0  0  0  0  0  0  0  0  0
   -2.3680   14.9250   -0.9630 C   0  0  0  0  0  0  0  0  0  0  0  0
    0.3370   10.9570   -7.9280 C   0  0  0  0  0  0  0  0  0  0  0  0
   -0.6590   10.1790   -7.3330 C   0  0  0  0  0  0  0  0  0  0  0  0
   -2.0610   10.3960   -5.2830 C   0  0  0  0  0  0  0  0  0  0  0  0
    0.9620   10.5120   -9.2310 C   0  0  0  0  0  0  0  0  0  0  0  0
   -0.3400   14.7760    0.7810 C   0  0  0  0  0  0  0  0  0  0  0  0
   -2.5190   15.0300    0.5240 C   0  0  0  0  0  0  0  0  0  0  0  0
   -3.7160   15.0710   -1.4130 C   0  0  0  0  0  0  0  0  0  0  0  0
   -1.2520    8.8880   -7.7720 C   0  0  0  0  0  0  0  0  0  0  0  0
   -2.9970    9.4080   -5.9880 C   0  0  0  0  0  0  0  0  0  0  0  0
    1.6300    9.3370   -9.0980 F   0  0  0  0  0  0  0  0  0  0  0  0
   -0.0180   10.2320  -10.1240 F   0  0  0  0  0  0  0  0  0  0  0  0
    1.7360   11.3700   -9.9120 F   0  0  0  0  0  0  0  0  0  0  0  0
   -1.4680   14.9260    1.3830 N   0  0  0  0  0  0  0  0  0  0  0  0
   -3.7480   15.2430    0.8860 N   0  0  0  0  0  0  0  0  0  0  0  0
   -4.4510   15.2590   -0.3080 C   0  0  0  0  0  0  0  0  0  0  0  0
   -2.2090    8.3110   -6.7090 C   0  0  0  0  0  0  0  0  0  0  0  0
  1  2  1  0
  2  3  2  3
  4  3  1  1
  4  5  1  0
  4  6  1  0
  6  5  1  6
  6  7  1  0
  6  8  1  0
  7  9  1  0
  8 10  1  0
  7 11  1  6
  9 12  1  0
 10 12  1  0
 10 13  1  0
 11 14  1  0
 11 15  1  0
 13 16  1  0
 13 17  2  0
 14 18  2  0
 15 19  2  0
 18 19  1  0
 15 20  1  0
 18 21  1  0
 16 22  1  0
 17 23  1  0
 17 24  1  0
 19 25  1  0
 20 26  1  0
 21 27  1  0
 21 28  1  0
 21 29  1  0
 22 30  2  0
 23 30  1  0
 23 31  2  0
 24 32  2  0
 31 32  1  0
 25 33  1  0
 26 33  1  0
M  END
