mac-x0161-mac-x0282
     RDKit          3D

 18 20  0  0  0  0  0  0  0  0999 V2000
   -4.4830   15.5270    1.2210 N   0  0  0  0  0  0  0  0  0  0  0  0
   -3.6090   14.9330    0.2180 C   0  0  2  0  0  0  0  0  0  0  0  0
   -2.1370   15.2460    0.4150 C   0  0  2  0  0  0  0  0  0  0  0  0
   -4.1050   15.4360   -1.0480 N   0  0  0  0  0  0  0  0  0  0  0  0
   -3.2750   15.1380   -2.2360 C   0  0  0  0  0  0  0  0  0  0  0  0
   -1.3940   14.7070   -0.7810 C   0  0  1  0  0  0  0  0  0  0  0  0
   -1.4110   14.6210    1.5230 N   0  0  0  0  0  0  0  0  0  0  0  0
   -1.8380   15.3230   -2.0170 N   0  0  0  0  0  0  0  0  0  0  0  0
   -0.0360   14.9810   -0.3650 N   0  0  0  0  0  0  0  0  0  0  0  0
   -0.0470   14.5240    1.0220 C   0  0  0  0  0  0  0  0  0  0  0  0
   -0.9940   15.0760   -3.1960 C   0  0  0  0  0  0  0  0  0  0  0  0
   -0.7700   13.6290   -3.5230 C   0  0  0  0  0  0  0  0  0  0  0  0
   -1.1570   12.8050   -4.5540 C   0  0  0  0  0  0  0  0  0  0  0  0
   -0.0170   12.9030   -2.6440 O   0  0  0  0  0  0  0  0  0  0  0  0
    0.0970   11.5920   -3.0880 N   0  0  0  0  0  0  0  0  0  0  0  0
   -0.5920   11.5580   -4.2330 C   0  0  0  0  0  0  0  0  0  0  0  0
   -0.7030   10.4260   -4.9650 O   0  0  0  0  0  0  0  0  0  0  0  0
   -1.7440   10.4460   -5.9380 C   0  0  0  0  0  0  0  0  0  0  0  0
  2  1  1  1
  2  3  1  0
  2  4  1  0
  4  5  1  0
  3  6  1  0
  3  7  1  1
  5  8  1  0
  6  8  1  0
  6  9  1  1
  7 10  1  0
  9 10  1  0
  8 11  1  0
 11 12  1  0
 12 13  2  0
 12 14  1  0
 14 15  1  0
 13 16  1  0
 15 16  2  0
 16 17  1  0
 17 18  1  0
M  END
