mac-x0437-mac-x0188
     RDKit          3D

 27 31  0  0  0  0  0  0  0  0999 V2000
    1.6620   13.9100   -2.5770 O   0  0  0  0  0  0  0  0  0  0  0  0
    1.7800   12.8740   -3.4210 C   0  0  0  0  0  0  0  0  0  0  0  0
    2.7480   12.1460   -3.3730 O   0  0  0  0  0  0  0  0  0  0  0  0
    0.4680   14.5230   -2.3760 C   0  0  0  0  0  0  0  0  0  0  0  0
    0.6740   12.5770   -4.3800 C   0  0  2  0  0  0  0  0  0  0  0  0
    0.4070   15.5830   -1.7940 O   0  0  0  0  0  0  0  0  0  0  0  0
   -0.7090   13.7840   -2.9030 C   0  0  2  0  0  0  0  0  0  0  0  0
    0.9510   12.3620   -5.8090 C   0  0  0  0  0  0  0  0  0  0  0  0
   -0.4380   13.5090   -4.2790 C   0  0  1  0  0  0  0  0  0  0  0  0
   -2.0350   14.3830   -3.2910 C   0  0  2  0  0  0  0  0  0  0  0  0
   -0.1320   11.4810   -6.1070 N   0  0  0  0  0  0  0  0  0  0  0  0
   -0.4540   14.7650   -4.9060 O   0  0  0  0  0  0  0  0  0  0  0  0
   -1.6670   15.3690   -4.3270 N   0  0  0  0  0  0  0  0  0  0  0  0
   -2.9050   14.7930   -2.1550 C   0  0  0  0  0  0  0  0  0  0  0  0
   -1.3640   11.4990   -5.4930 C   0  0  0  0  0  0  0  0  0  0  0  0
   -0.1290   10.5020   -6.9950 C   0  0  0  0  0  0  0  0  0  0  0  0
   -4.1890   15.2580   -2.4480 C   0  0  0  0  0  0  0  0  0  0  0  0
   -2.4950   14.7210   -0.8180 C   0  0  0  0  0  0  0  0  0  0  0  0
   -2.1480   10.5610   -5.9490 N   0  0  0  0  0  0  0  0  0  0  0  0
   -1.3850    9.9240   -6.8880 C   0  0  0  0  0  0  0  0  0  0  0  0
    0.8470   10.0750   -7.8640 C   0  0  0  0  0  0  0  0  0  0  0  0
   -5.0450   15.6440   -1.4300 C   0  0  0  0  0  0  0  0  0  0  0  0
   -3.3530   15.1060    0.2000 C   0  0  0  0  0  0  0  0  0  0  0  0
   -1.6880    8.8370   -7.6990 C   0  0  0  0  0  0  0  0  0  0  0  0
    0.5400    8.9960   -8.6690 C   0  0  0  0  0  0  0  0  0  0  0  0
   -4.6260   15.5660   -0.1080 C   0  0  0  0  0  0  0  0  0  0  0  0
   -0.7090    8.3800   -8.5900 C   0  0  0  0  0  0  0  0  0  0  0  0
  1  2  1  0
  2  3  2  0
  1  4  1  0
  2  5  1  0
  4  6  2  0
  7  4  1  6
  5  8  1  6
  5  9  1  0
  7  9  1  0
  7 10  1  0
  8 11  1  0
  9 12  1  6
 10 13  1  0
 12 13  1  0
 10 14  1  1
 11 15  1  0
 11 16  1  0
 14 17  2  0
 14 18  1  0
 15 19  2  0
 16 20  2  0
 19 20  1  0
 16 21  1  0
 17 22  1  0
 18 23  2  0
 20 24  1  0
 21 25  2  0
 22 26  2  0
 23 26  1  0
 24 27  2  0
 25 27  1  0
M  END
