mac-x0451-mac-x0567
     RDKit          3D

 16 18  0  0  0  0  0  0  0  0999 V2000
   -6.6960   14.2370    2.6400 N   0  0  0  0  0  0  0  0  0  0  0  0
   -5.8470   14.4050    1.6090 C   0  0  0  0  0  0  0  0  0  0  0  0
   -6.2140   14.8190    0.4200 N   0  0  0  0  0  0  0  0  0  0  0  0
   -4.1590   14.0880    1.7750 S   0  0  0  0  0  0  0  0  0  0  0  0
   -5.1050   14.9060   -0.3790 C   0  0  0  0  0  0  0  0  0  0  0  0
   -3.8970   14.5570    0.1820 C   0  0  0  0  0  0  0  0  0  0  0  0
   -5.1700   15.3430   -1.7260 C   0  0  0  0  0  0  0  0  0  0  0  0
   -2.5650   14.6250   -0.5300 C   0  0  2  0  0  0  0  0  0  0  0  0
   -4.0970   15.2290   -2.5390 C   0  0  0  0  0  0  0  0  0  0  0  0
   -2.7750   14.6360   -2.0790 C   0  0  1  0  0  0  0  0  0  0  0  0
   -1.3490   13.7940    0.0040 C   0  0  1  0  0  0  0  0  0  0  0  0
   -2.0240   15.9020   -0.0410 C   0  0  0  0  0  0  0  0  0  0  0  0
   -1.7540   15.2840   -2.6970 F   0  0  0  0  0  0  0  0  0  0  0  0
    0.0180   14.0900   -0.4470 N   0  0  0  0  0  0  0  0  0  0  0  0
   -1.3010   14.2110    1.3910 N   0  0  0  0  0  0  0  0  0  0  0  0
   -1.8200   15.5640    1.3690 N   0  0  0  0  0  0  0  0  0  0  0  0
  1  2  1  0
  2  3  2  0
  2  4  1  0
  3  5  1  0
  4  6  1  0
  5  6  2  0
  5  7  1  0
  6  8  1  0
  7  9  2  0
  8 10  1  0
  9 10  1  0
  8 11  1  0
  8 12  1  1
 10 13  1  6
 11 14  1  6
 11 15  1  0
 12 16  1  0
 15 16  1  0
M  END
