mac-x0358-mac-x0417
     RDKit          3D

 20 22  0  0  0  0  0  0  0  0999 V2000
    1.4670   12.9240   -2.3760 O   0  0  0  0  0  0  0  0  0  0  0  0
    0.7330   12.1650   -3.2250 C   0  0  0  0  0  0  0  0  0  0  0  0
    0.2550   11.1010   -2.8420 O   0  0  0  0  0  0  0  0  0  0  0  0
    0.5350   12.6830   -4.6480 C   0  0  2  0  0  0  0  0  0  0  0  0
   -0.7210   13.4960   -4.8830 C   0  0  0  0  0  0  0  0  0  0  0  0
    0.4550   11.6970   -5.7900 C   0  0  0  0  0  0  0  0  0  0  0  0
   -1.9660   12.8820   -5.0470 C   0  0  0  0  0  0  0  0  0  0  0  0
   -0.6800   14.9020   -4.9540 C   0  0  0  0  0  0  0  0  0  0  0  0
    1.3780   11.7070   -6.7560 N   0  0  0  0  0  0  0  0  0  0  0  0
   -0.5240   10.6770   -6.0420 C   0  0  0  0  0  0  0  0  0  0  0  0
   -2.0550   11.5340   -4.9760 O   0  0  0  0  0  0  0  0  0  0  0  0
   -3.1260   13.6020   -5.2800 C   0  0  0  0  0  0  0  0  0  0  0  0
   -1.8510   15.6370   -5.1850 C   0  0  0  0  0  0  0  0  0  0  0  0
    1.0140   10.7120   -7.6520 O   0  0  0  0  0  0  0  0  0  0  0  0
   -0.1210   10.0980   -7.2280 C   0  0  0  0  0  0  0  0  0  0  0  0
   -1.6910   10.1780   -5.4240 C   0  0  0  0  0  0  0  0  0  0  0  0
   -3.0690   14.9850   -5.3510 C   0  0  0  0  0  0  0  0  0  0  0  0
   -0.7880    9.0560   -7.8680 C   0  0  0  0  0  0  0  0  0  0  0  0
   -2.3900    9.1280   -6.0380 C   0  0  0  0  0  0  0  0  0  0  0  0
   -1.9450    8.5790   -7.2400 C   0  0  0  0  0  0  0  0  0  0  0  0
  1  2  1  0
  2  3  2  0
  4  2  1  1
  4  5  1  0
  4  6  1  0
  5  7  2  0
  5  8  1  0
  6  9  2  0
  6 10  1  0
  7 11  1  0
  7 12  1  0
  8 13  2  0
  9 14  1  0
 10 15  2  0
 14 15  1  0
 10 16  1  0
 12 17  2  0
 13 17  1  0
 15 18  1  0
 16 19  2  0
 18 20  2  0
 19 20  1  0
M  END
