mac-x0436-mac-x1493
     RDKit          3D

 30 33  0  0  0  0  0  0  0  0999 V2000
    0.7930   11.1300   -3.0490 O   0  0  0  0  0  0  0  0  0  0  0  0
    1.3090   12.3750   -2.9970 C   0  0  0  0  0  0  0  0  0  0  0  0
    1.3870   12.9820   -1.9430 O   0  0  0  0  0  0  0  0  0  0  0  0
    1.7940   12.9440   -4.3180 C   0  0  0  0  0  0  0  0  0  0  0  0
    0.7250   13.2100   -5.3750 C   0  0  0  0  0  0  0  0  0  0  0  0
   -0.1160   12.0020   -5.7310 C   0  0  0  0  0  0  0  0  0  0  0  0
   -1.4710   11.7890   -5.0520 C   0  0  0  0  0  0  0  0  0  0  0  0
    0.3240   11.1590   -6.6150 N   0  0  0  0  0  0  0  0  0  0  0  0
   -2.0170   12.7860   -4.4740 N   0  0  0  0  0  0  0  0  0  0  0  0
   -1.9950   10.5170   -5.1360 N   0  0  0  0  0  0  0  0  0  0  0  0
   -0.4690   10.0360   -6.9350 C   0  0  0  0  0  0  0  0  0  0  0  0
   -1.5430   14.1650   -4.3570 C   0  0  0  0  0  0  0  0  0  0  0  0
   -1.6280    9.7020   -6.2070 C   0  0  0  0  0  0  0  0  0  0  0  0
   -0.0810    9.2370   -8.0050 C   0  0  0  0  0  0  0  0  0  0  0  0
   -2.6780   14.5260   -3.5840 N   0  0  0  0  0  0  0  0  0  0  0  0
   -0.8320    8.1150   -8.3600 C   0  0  0  0  0  0  0  0  0  0  0  0
   -2.3790    8.5770   -6.5620 C   0  0  0  0  0  0  0  0  0  0  0  0
   -2.6490   14.7060   -2.3420 C   0  0  0  0  0  0  0  0  0  0  0  0
   -1.9790    7.7850   -7.6390 C   0  0  0  0  0  0  0  0  0  0  0  0
   -1.4990   14.6960   -1.6470 O   0  0  0  0  0  0  0  0  0  0  0  0
   -3.8250   14.8010   -1.5370 C   0  0  0  0  0  0  0  0  0  0  0  0
   -3.8240   14.9150   -0.1620 C   0  0  0  0  0  0  0  0  0  0  0  0
   -5.0190   14.7210   -2.2160 C   0  0  0  0  0  0  0  0  0  0  0  0
   -5.0640   14.9050    0.4810 C   0  0  0  0  0  0  0  0  0  0  0  0
   -6.2210   14.7200   -1.6300 N   0  0  0  0  0  0  0  0  0  0  0  0
   -6.2420   14.7970   -0.3000 C   0  0  0  0  0  0  0  0  0  0  0  0
   -5.1640   14.9870    1.8680 C   0  0  0  0  0  0  0  0  0  0  0  0
   -7.4710   14.7590    0.3340 C   0  0  0  0  0  0  0  0  0  0  0  0
   -6.4180   14.9480    2.4830 C   0  0  0  0  0  0  0  0  0  0  0  0
   -7.5720   14.8290    1.7220 C   0  0  0  0  0  0  0  0  0  0  0  0
  1  2  1  0
  2  3  2  0
  2  4  1  0
  4  5  1  0
  5  6  1  0
  6  7  1  0
  6  8  2  0
  7  9  2  3
  7 10  1  0
  8 11  1  0
  9 12  1  0
 10 13  1  0
 11 13  2  0
 11 14  1  0
 12 15  1  0
 14 16  2  0
 13 17  1  0
 15 18  2  3
 16 19  1  0
 17 19  2  0
 18 20  1  0
 18 21  1  0
 21 22  2  0
 21 23  1  0
 22 24  1  0
 23 25  2  0
 24 26  2  0
 25 26  1  0
 24 27  1  0
 26 28  1  0
 27 29  2  0
 28 30  2  0
 29 30  1  0
M  END
