mac-x0282-mac-x0565
     RDKit          3D

 20 23  0  0  0  0  0  0  0  0999 V2000
   -5.9330   14.5870    0.4530 O   0  0  0  0  0  0  0  0  0  0  0  0
   -6.3020   14.3830   -0.8270 C   0  0  0  0  0  0  0  0  0  0  0  0
   -7.4610   14.1580   -1.1110 O   0  0  0  0  0  0  0  0  0  0  0  0
   -5.1500   14.5020   -1.7700 C   0  0  0  0  0  0  0  0  0  0  0  0
   -3.8960   14.5620   -1.1820 C   0  0  0  0  0  0  0  0  0  0  0  0
   -5.2470   14.5730   -3.1740 C   0  0  0  0  0  0  0  0  0  0  0  0
   -2.7650   14.7230   -1.9710 C   0  0  0  0  0  0  0  0  0  0  0  0
   -4.0840   14.7220   -3.9710 C   0  0  0  0  0  0  0  0  0  0  0  0
   -1.3870   14.9080   -1.4280 C   0  0  1  0  0  0  0  0  0  0  0  0
   -2.8530   14.8060   -3.3250 C   0  0  0  0  0  0  0  0  0  0  0  0
   -2.3100   15.3440   -0.3980 C   0  0  0  0  0  0  0  0  0  0  0  0
   -0.3460   14.0290   -0.7410 C   0  0  0  0  0  0  0  0  0  0  0  0
   -1.6250   14.9930   -3.8790 O   0  0  0  0  0  0  0  0  0  0  0  0
   -0.9470   15.6440   -2.7440 C   0  0  0  0  0  0  0  0  0  0  0  0
   -3.4500   15.9650   -0.5150 C   0  0  0  0  0  0  0  0  0  0  0  0
   -2.1110   15.0150    1.0060 C   0  0  0  0  0  0  0  0  0  0  0  0
   -0.2980   13.8570    0.6120 C   0  0  0  0  0  0  0  0  0  0  0  0
   -3.9170   16.0090    0.8340 C   0  0  0  0  0  0  0  0  0  0  0  0
   -3.1610   15.4860    1.7060 N   0  0  0  0  0  0  0  0  0  0  0  0
   -1.1740   14.3650    1.5340 N   0  0  0  0  0  0  0  0  0  0  0  0
  1  2  1  0
  2  3  2  0
  2  4  1  0
  4  5  2  0
  4  6  1  0
  5  7  1  0
  6  8  2  0
  7  9  1  0
  7 10  2  0
  8 10  1  0
  9 11  1  0
  9 12  1  1
 10 13  1  0
  9 14  1  0
 13 14  1  0
 11 15  2  0
 11 16  1  0
 12 17  2  0
 15 18  1  0
 16 19  1  0
 18 19  2  0
 16 20  2  0
 17 20  1  0
M  END
