mac-x0131-diamond-x0662_0_A
     RDKit          3D

 36 40  0  0  0  0  0  0  0  0999 V2000
   -3.5680   15.2010   -4.1390 C   0  0  0  0  0  0  0  0  0  0  0  0
   -3.0940   15.1040   -2.7300 C   0  0  0  0  0  0  0  0  0  0  0  0
   -3.7930   15.1600   -1.5290 C   0  0  0  0  0  0  0  0  0  0  0  0
   -1.7620   14.9360   -2.4200 N   0  0  0  0  0  0  0  0  0  0  0  0
   -5.2600   15.3470   -1.3560 C   0  0  0  0  0  0  0  0  0  0  0  0
   -0.6590   14.8450   -3.3400 C   0  0  0  0  0  0  0  0  0  0  0  0
   -2.8320   15.0110   -0.4740 C   0  0  0  0  0  0  0  0  0  0  0  0
   -1.5910   14.8640   -1.0690 C   0  0  0  0  0  0  0  0  0  0  0  0
   -2.8450   14.9880    0.9280 C   0  0  0  0  0  0  0  0  0  0  0  0
   -0.4110   14.6930   -0.4450 N   0  0  0  0  0  0  0  0  0  0  0  0
   -0.2510   13.4570   -3.3400 C   0  0  0  0  0  0  0  0  0  0  0  0
   -4.0050   15.1530    1.6720 N   0  0  0  0  0  0  0  0  0  0  0  0
   -1.6840   14.8080    1.6020 N   0  0  0  0  0  0  0  0  0  0  0  0
   -0.5540   14.6760    0.8850 C   0  0  0  0  0  0  0  0  0  0  0  0
    0.5080   12.6690   -2.5170 C   0  0  0  0  0  0  0  0  0  0  0  0
   -0.7210   12.7690   -4.3720 O   0  0  0  0  0  0  0  0  0  0  0  0
   -0.2710   11.5050   -4.2420 C   0  0  0  0  0  0  0  0  0  0  0  0
    0.4790   11.3990   -3.1000 C   0  0  0  0  0  0  0  0  0  0  0  0
   -0.6010   10.6730   -5.1750 N   0  0  0  0  0  0  0  0  0  0  0  0
    0.0280   11.0150   -6.2280 C   0  0  0  0  0  0  0  0  0  0  0  0
    0.8270   11.9620   -6.3730 O   0  0  0  0  0  0  0  0  0  0  0  0
   -0.0920   10.3040   -7.4960 C   0  0  0  0  0  0  0  0  0  0  0  0
   -1.0620    9.3180   -7.6090 C   0  0  0  0  0  0  0  0  0  0  0  0
    0.7520   10.6150   -8.5480 C   0  0  0  0  0  0  0  0  0  0  0  0
   -1.1900    8.6300   -8.8000 C   0  0  0  0  0  0  0  0  0  0  0  0
    0.6300    9.9240   -9.7480 C   0  0  0  0  0  0  0  0  0  0  0  0
    1.4980   10.2470  -10.7920 N   0  0  0  0  0  0  0  0  0  0  0  0
   -0.3430    8.9330   -9.8690 C   0  0  0  0  0  0  0  0  0  0  0  0
    2.3210    9.3700  -11.4510 C   0  0  0  0  0  0  0  0  0  0  0  0
    2.5390    8.2070  -11.1310 O   0  0  0  0  0  0  0  0  0  0  0  0
    2.9840    9.9480  -12.6320 C   0  0  0  0  0  0  0  0  0  0  0  0
    2.7760   11.2210  -13.2330 C   0  0  0  0  0  0  0  0  0  0  0  0
    3.9290    9.2530  -13.2900 N   0  0  0  0  0  0  0  0  0  0  0  0
    4.3120   10.0680  -14.2800 N   0  0  0  0  0  0  0  0  0  0  0  0
    3.6510   11.2650  -14.2950 C   0  0  0  0  0  0  0  0  0  0  0  0
    5.3390    9.6180  -15.1890 C   0  0  0  0  0  0  0  0  0  0  0  0
  1  2  1  0
  2  3  2  0
  2  4  1  0
  3  5  1  0
  4  6  1  0
  3  7  1  0
  4  8  1  0
  7  8  2  0
  7  9  1  0
  8 10  1  0
  6 11  1  0
  9 12  1  0
  9 13  2  0
 10 14  2  0
 13 14  1  0
 11 15  2  0
 11 16  1  0
 16 17  1  0
 15 18  1  0
 17 18  2  0
 17 19  1  0
 19 20  2  3
 20 21  1  0
 20 22  1  0
 22 23  2  0
 22 24  1  0
 23 25  1  0
 24 26  2  0
 26 27  1  0
 25 28  2  0
 26 28  1  0
 27 29  1  0
 29 30  2  0
 29 31  1  0
 31 32  1  0
 31 33  2  0
 33 34  1  0
 32 35  2  0
 34 35  1  0
 34 36  1  0
M  CHG  1  21  -1
M  END
