mac-x0357-diamond-x0574_0_A
     RDKit          3D

 25 27  0  0  0  0  0  0  0  0999 V2000
    2.3310   13.3110   -4.6730 C   0  0  0  0  0  0  0  0  0  0  0  0
    1.0390   12.5980   -4.9420 C   0  0  0  0  0  0  0  0  0  0  0  0
    0.8550   11.8000   -6.0770 C   0  0  0  0  0  0  0  0  0  0  0  0
   -0.0410   12.7110   -4.0590 C   0  0  0  0  0  0  0  0  0  0  0  0
    1.8170   11.6230   -7.0120 O   0  0  0  0  0  0  0  0  0  0  0  0
    0.0070   13.5540   -2.8490 C   0  0  0  0  0  0  0  0  0  0  0  0
   -1.2470   12.0330   -4.2950 C   0  0  0  0  0  0  0  0  0  0  0  0
   -0.3380   11.1270   -6.3220 C   0  0  0  0  0  0  0  0  0  0  0  0
   -0.6220   14.5900   -2.8040 O   0  0  0  0  0  0  0  0  0  0  0  0
    0.8150   13.0930   -1.8680 O   0  0  0  0  0  0  0  0  0  0  0  0
   -1.3930   11.2360   -5.4290 C   0  0  0  0  0  0  0  0  0  0  0  0
    1.5580   14.1830   -1.2690 C   0  0  0  0  0  0  0  0  0  0  0  0
    0.8230   14.9530   -0.1410 C   0  0  0  0  0  0  0  0  0  0  0  0
    0.1540   14.2060    0.9330 N   0  0  0  0  0  0  0  0  0  0  0  0
   -1.1220   14.3510    0.7950 C   0  0  0  0  0  0  0  0  0  0  0  0
   -2.0680   14.3910    1.6880 N   0  0  0  0  0  0  0  0  0  0  0  0
   -1.5430   14.5270   -0.8330 S   0  0  0  0  0  0  0  0  0  0  0  0
   -3.2540   14.5760    0.9880 C   0  0  0  0  0  0  0  0  0  0  0  0
   -3.1490   14.6810   -0.3960 C   0  0  0  0  0  0  0  0  0  0  0  0
   -4.5340   14.6640    1.5210 C   0  0  0  0  0  0  0  0  0  0  0  0
   -4.2250   14.8780   -1.2480 C   0  0  0  0  0  0  0  0  0  0  0  0
   -5.6320   14.8440    0.6970 C   0  0  0  0  0  0  0  0  0  0  0  0
   -5.4790   14.9580   -0.6750 C   0  0  0  0  0  0  0  0  0  0  0  0
   -6.9200   14.9220    1.1370 O   0  0  0  0  0  0  0  0  0  0  0  0
   -7.1050   14.6580    2.5220 C   0  0  0  0  0  0  0  0  0  0  0  0
  1  2  1  0
  2  3  2  0
  2  4  1  0
  3  5  1  0
  4  6  1  0
  4  7  2  0
  3  8  1  0
  6  9  2  0
  6 10  1  0
  7 11  1  0
  8 11  2  0
 10 12  1  0
 12 13  1  0
 13 14  1  0
 14 15  1  0
 15 16  2  0
 15 17  1  0
 16 18  1  0
 17 19  1  0
 18 19  2  0
 18 20  1  0
 19 21  1  0
 20 22  2  0
 21 23  2  0
 22 23  1  0
 22 24  1  0
 24 25  1  0
M  END
