mac-x0182-mac-x0188
     RDKit          3D

 27 30  0  0  0  0  0  0  0  0999 V2000
    1.6370   11.6610   -7.0570 O   0  0  0  0  0  0  0  0  0  0  0  0
    0.6520   11.3890   -6.4070 C   0  0  0  0  0  0  0  0  0  0  0  0
    0.2930   11.9680   -5.2230 N   0  0  0  0  0  0  0  0  0  0  0  0
   -0.3120   10.3390   -6.7880 C   0  0  0  0  0  0  0  0  0  0  0  0
   -0.9070   11.0960   -4.4280 S   0  0  2  0  0  0  0  0  0  0  0  0
   -1.2320   10.0710   -5.7810 C   0  0  0  0  0  0  0  0  0  0  0  0
   -0.3590    9.6490   -7.9850 C   0  0  0  0  0  0  0  0  0  0  0  0
   -2.0490   12.1260   -4.2430 N   0  0  0  0  0  0  0  0  0  0  0  0
   -0.2090   10.3400   -3.4090 O   0  0  0  0  0  0  0  0  0  0  0  0
   -2.2270    9.1290   -5.9030 C   0  0  0  0  0  0  0  0  0  0  0  0
   -1.3610    8.6840   -8.1400 C   0  0  0  0  0  0  0  0  0  0  0  0
   -2.2850    8.4250   -7.1070 C   0  0  0  0  0  0  0  0  0  0  0  0
   -1.8890   13.5670   -4.5560 N   0  0  0  0  0  0  0  0  0  0  0  0
   -0.6510   13.6510   -5.3470 O   0  0  0  0  0  0  0  0  0  0  0  0
   -1.5190   14.4640   -3.4420 C   0  0  2  0  0  0  0  0  0  0  0  0
    0.3870   14.0940   -4.4350 C   0  0  1  0  0  0  0  0  0  0  0  0
   -0.2250   13.7700   -3.0860 C   0  0  1  0  0  0  0  0  0  0  0  0
   -2.5760   14.7510   -2.3660 C   0  0  0  0  0  0  0  0  0  0  0  0
    1.7340   13.4320   -4.7160 C   0  0  0  0  0  0  0  0  0  0  0  0
    0.5490   14.3230   -1.9280 C   0  0  0  0  0  0  0  0  0  0  0  0
   -3.8490   15.2000   -2.7670 C   0  0  0  0  0  0  0  0  0  0  0  0
   -2.3330   14.6060   -0.9850 C   0  0  0  0  0  0  0  0  0  0  0  0
    0.9310   15.4660   -1.8580 O   0  0  0  0  0  0  0  0  0  0  0  0
    0.8270   13.4020   -0.9680 O   0  0  0  0  0  0  0  0  0  0  0  0
   -4.8370   15.4970   -1.8250 C   0  0  0  0  0  0  0  0  0  0  0  0
   -3.3270   14.9080   -0.0470 C   0  0  0  0  0  0  0  0  0  0  0  0
   -4.5760   15.3530   -0.4690 C   0  0  0  0  0  0  0  0  0  0  0  0
  1  2  2  0
  2  3  1  0
  2  4  1  0
  5  3  1  6
  4  6  2  0
  5  6  1  0
  4  7  1  0
  5  8  2  0
  5  9  2  0
  6 10  1  0
  7 11  2  0
 10 12  2  0
 11 12  1  0
  8 13  1  0
 13 14  1  0
 13 15  1  0
 14 16  1  0
 15 17  1  0
 16 17  1  0
 15 18  1  1
 16 19  1  6
 17 20  1  1
 18 21  2  0
 18 22  1  0
 20 23  2  0
 20 24  1  0
 21 25  1  0
 22 26  2  0
 25 27  2  0
 26 27  1  0
M  END
