mac-x0380-mac-x0451
     RDKit          3D

 14 15  0  0  0  0  0  0  0  0999 V2000
   -1.3540   14.7270   -2.5090 O   0  0  0  0  0  0  0  0  0  0  0  0
   -2.6550   14.9890   -2.7570 C   0  0  0  0  0  0  0  0  0  0  0  0
   -3.0880   15.2040   -3.8770 O   0  0  0  0  0  0  0  0  0  0  0  0
   -3.5120   14.9940   -1.5460 C   0  0  0  0  0  0  0  0  0  0  0  0
   -4.9010   15.0490   -1.6570 C   0  0  0  0  0  0  0  0  0  0  0  0
   -2.9140   14.9410   -0.2800 C   0  0  0  0  0  0  0  0  0  0  0  0
   -5.6960   15.0420   -0.5070 C   0  0  0  0  0  0  0  0  0  0  0  0
   -3.7060   14.9370    0.8720 C   0  0  0  0  0  0  0  0  0  0  0  0
   -5.1010   14.9840    0.7620 C   0  0  0  0  0  0  0  0  0  0  0  0
   -7.4570   15.0980   -0.7050 S   0  0  0  0  0  0  0  0  0  0  0  0
   -5.8680   14.9650    1.9420 N   0  0  0  0  0  0  0  0  0  0  0  0
   -7.8760   14.1320    0.7610 C   0  0  0  0  0  0  0  0  0  0  0  0
   -7.2010   14.6370    2.0080 C   0  0  0  0  0  0  0  0  0  0  0  0
   -7.8280   14.7740    3.0660 O   0  0  0  0  0  0  0  0  0  0  0  0
  1  2  1  0
  2  3  2  0
  2  4  1  0
  4  5  2  0
  4  6  1  0
  5  7  1  0
  6  8  2  0
  7  9  2  0
  8  9  1  0
  7 10  1  0
  9 11  1  0
 10 12  1  0
 11 13  1  0
 12 13  1  0
 13 14  2  0
M  END
