mac-x0190-diamond-x0849_0_A
     RDKit          3D

 17 19  0  0  0  0  0  0  0  0999 V2000
   -9.1550   15.0060    2.4290 O   0  0  0  0  0  0  0  0  0  0  0  0
   -8.9870   14.0110    1.4230 C   0  0  0  0  0  0  0  0  0  0  0  0
   -7.6130   14.1530    0.8860 C   0  0  0  0  0  0  0  0  0  0  0  0
   -7.3300   15.0500   -0.1060 N   0  0  0  0  0  0  0  0  0  0  0  0
   -6.5280   13.4910    1.2500 N   0  0  0  0  0  0  0  0  0  0  0  0
   -6.0020   14.9410   -0.3580 C   0  0  0  0  0  0  0  0  0  0  0  0
   -5.5080   13.9690    0.4740 C   0  0  0  0  0  0  0  0  0  0  0  0
   -5.2140   15.6880   -1.3170 C   0  0  0  0  0  0  0  0  0  0  0  0
   -4.0640   13.4990    0.5190 C   0  0  0  0  0  0  0  0  0  0  0  0
   -3.9600   14.8440   -1.4960 C   0  0  2  0  0  0  0  0  0  0  0  0
   -3.0820   14.4920   -0.2250 C   0  0  2  0  0  0  0  0  0  0  0  0
   -3.0780   15.2810   -3.1910 Br  0  0  0  0  0  0  0  0  0  0  0  0
   -1.7420   13.8060   -0.7510 C   0  0  0  0  0  0  0  0  0  0  0  0
   -2.8170   15.4390    0.9840 C   0  0  0  0  0  0  0  0  0  0  0  0
   -1.5090   15.1470    1.5870 N   0  0  0  0  0  0  0  0  0  0  0  0
   -0.4200   14.3440   -0.2730 C   0  0  0  0  0  0  0  0  0  0  0  0
   -0.3700   14.9780    0.8640 C   0  0  0  0  0  0  0  0  0  0  0  0
  1  2  1  0
  2  3  1  0
  3  4  1  0
  3  5  2  0
  4  6  1  0
  5  7  1  0
  6  7  2  0
  6  8  1  0
  7  9  1  0
  8 10  1  0
 11  9  1  1
 10 11  1  0
 10 12  1  6
 11 13  1  0
 11 14  1  0
 14 15  1  0
 13 16  1  0
 15 17  1  0
 16 17  2  0
M  END
