mac-x0346-mac-x0357
     RDKit          3D

 24 25  0  0  0  0  0  0  0  0999 V2000
   -7.6170   14.0540    1.2210 O   0  0  0  0  0  0  0  0  0  0  0  0
   -7.7290   14.9340    0.1180 N   0  0  0  0  0  0  0  0  0  0  0  0
   -6.6760   14.9580   -0.7690 C   0  0  0  0  0  0  0  0  0  0  0  0
   -6.8930   14.8990   -1.9780 O   0  0  0  0  0  0  0  0  0  0  0  0
   -5.2720   15.0490   -0.2490 C   0  0  0  0  0  0  0  0  0  0  0  0
   -4.1400   14.9850   -1.0730 C   0  0  0  0  0  0  0  0  0  0  0  0
   -5.0860   15.2030    1.1400 C   0  0  0  0  0  0  0  0  0  0  0  0
   -4.3230   14.8410   -2.4190 O   0  0  0  0  0  0  0  0  0  0  0  0
   -2.8720   15.0700   -0.5010 C   0  0  0  0  0  0  0  0  0  0  0  0
   -3.8110   15.2940    1.6880 C   0  0  0  0  0  0  0  0  0  0  0  0
   -3.1620   15.0410   -3.2220 C   0  0  0  0  0  0  0  0  0  0  0  0
   -2.7030   15.2260    0.8710 C   0  0  0  0  0  0  0  0  0  0  0  0
   -2.3090   13.7820   -3.3000 C   0  0  0  0  0  0  0  0  0  0  0  0
   -1.1690   13.8000   -2.3460 N   0  0  0  0  0  0  0  0  0  0  0  0
   -0.1650   13.1400   -2.7670 C   0  0  0  0  0  0  0  0  0  0  0  0
    0.9480   13.0260   -2.0280 O   0  0  0  0  0  0  0  0  0  0  0  0
   -0.0850   12.4430   -4.0420 C   0  0  0  0  0  0  0  0  0  0  0  0
    1.0240   12.5110   -4.8890 C   0  0  0  0  0  0  0  0  0  0  0  0
   -1.2220   11.6950   -4.3770 C   0  0  0  0  0  0  0  0  0  0  0  0
    2.2730   13.2880   -4.5760 C   0  0  0  0  0  0  0  0  0  0  0  0
   -1.2750   11.0020   -5.5780 C   0  0  0  0  0  0  0  0  0  0  0  0
    0.9280   11.8040   -6.0860 C   0  0  0  0  0  0  0  0  0  0  0  0
    1.9840   11.8560   -6.9130 O   0  0  0  0  0  0  0  0  0  0  0  0
   -0.1950   11.0580   -6.4410 C   0  0  0  0  0  0  0  0  0  0  0  0
  1  2  1  0
  2  3  1  0
  3  4  2  0
  3  5  1  0
  5  6  2  0
  5  7  1  0
  6  8  1  0
  6  9  1  0
  7 10  2  0
  8 11  1  0
  9 12  2  0
 10 12  1  0
 11 13  1  0
 13 14  1  0
 14 15  2  3
 15 16  1  0
 15 17  1  0
 17 18  2  0
 17 19  1  0
 18 20  1  0
 19 21  2  0
 18 22  1  0
 22 23  1  0
 21 24  1  0
 22 24  2  0
M  END
