mac-x0255-mac-x0587
     RDKit          3D

 24 26  0  0  0  0  0  0  0  0999 V2000
    2.1820   12.4610   -3.0130 O   0  0  0  0  0  0  0  0  0  0  0  0
    0.8300   12.6390   -2.6660 C   0  0  2  0  0  0  0  0  0  0  0  0
    0.0820   11.4480   -2.1060 N   0  0  0  0  0  0  0  0  0  0  0  0
   -0.0010   13.3160   -3.7960 C   0  0  1  0  0  0  0  0  0  0  0  0
   -1.0500   14.4020   -3.3190 C   0  0  2  0  0  0  0  0  0  0  0  0
    0.6230   10.3550   -2.2750 O   0  0  0  0  0  0  0  0  0  0  0  0
    0.2040   14.6210   -4.4500 C   0  0  0  0  0  0  0  0  0  0  0  0
   -0.4320   15.6150   -2.5860 C   0  0  0  0  0  0  0  0  0  0  0  0
   -2.4880   14.1370   -2.8870 C   0  0  0  0  0  0  0  0  0  0  0  0
    1.1120   15.5840   -4.8170 C   0  0  0  0  0  0  0  0  0  0  0  0
   -1.3970   15.0270   -4.8220 S   0  0  0  0  0  0  0  0  0  0  0  0
   -3.2870   13.6730   -3.6930 O   0  0  0  0  0  0  0  0  0  0  0  0
    0.3920   16.7240   -5.3840 C   0  0  0  0  0  0  0  0  0  0  0  0
   -0.9910   16.5140   -5.4200 C   0  0  0  0  0  0  0  0  0  0  0  0
   -2.8360   14.5120   -1.6120 N   0  0  0  0  0  0  0  0  0  0  0  0
    0.8100   17.9700   -5.8860 C   0  0  0  0  0  0  0  0  0  0  0  0
   -1.9380   17.4110   -5.8900 C   0  0  0  0  0  0  0  0  0  0  0  0
   -4.0680   15.1940   -1.2650 C   0  0  0  0  0  0  0  0  0  0  0  0
   -1.9250   14.7230   -0.5620 C   0  0  0  0  0  0  0  0  0  0  0  0
   -0.7070   14.7240   -0.5480 O   0  0  0  0  0  0  0  0  0  0  0  0
   -0.1340   18.8900   -6.3660 C   0  0  0  0  0  0  0  0  0  0  0  0
   -1.4930   18.6160   -6.3660 C   0  0  0  0  0  0  0  0  0  0  0  0
   -4.0010   15.3600    0.2410 C   0  0  0  0  0  0  0  0  0  0  0  0
   -2.6720   14.9470    0.5860 N   0  0  0  0  0  0  0  0  0  0  0  0
  2  1  1  6
  2  3  1  0
  2  4  1  0
  4  5  1  0
  3  6  2  0
  4  7  1  6
  5  8  1  1
  5  9  1  0
  7 10  2  0
  7 11  1  0
  9 12  2  0
 10 13  1  0
 11 14  1  0
 13 14  2  0
  9 15  1  0
 13 16  1  0
 14 17  1  0
 15 18  1  0
 15 19  1  0
 19 20  2  0
 16 21  2  0
 17 22  2  0
 21 22  1  0
 18 23  1  0
 19 24  1  0
 23 24  1  0
M  END
