mac-x0404-mac-x0572
     RDKit          3D

 30 33  0  0  0  0  0  0  0  0999 V2000
    1.2600   13.1640   -2.2980 O   0  0  0  0  0  0  0  0  0  0  0  0
    1.2550   12.2960   -3.3330 C   0  0  0  0  0  0  0  0  0  0  0  0
    0.6420   11.2320   -3.2540 O   0  0  0  0  0  0  0  0  0  0  0  0
    2.0700   12.7360   -4.5720 C   0  0  0  0  0  0  0  0  0  0  0  0
    1.7180   14.0350   -5.0630 O   0  0  0  0  0  0  0  0  0  0  0  0
    0.4230   14.4000   -4.9130 C   0  0  0  0  0  0  0  0  0  0  0  0
    0.0800   15.7680   -5.0920 C   0  0  0  0  0  0  0  0  0  0  0  0
   -0.5160   13.4630   -4.5900 C   0  0  0  0  0  0  0  0  0  0  0  0
   -1.2460   16.1910   -4.9070 C   0  0  0  0  0  0  0  0  0  0  0  0
   -1.7870   13.8580   -4.4010 C   0  0  0  0  0  0  0  0  0  0  0  0
    1.0270   16.7160   -5.4450 C   0  0  0  0  0  0  0  0  0  0  0  0
   -2.1520   15.1800   -4.5320 C   0  0  0  0  0  0  0  0  0  0  0  0
   -1.5410   17.5620   -5.0970 C   0  0  0  0  0  0  0  0  0  0  0  0
    0.7340   18.0620   -5.6270 C   0  0  0  0  0  0  0  0  0  0  0  0
   -3.5590   15.2740   -4.1790 C   0  0  0  0  0  0  0  0  0  0  0  0
   -0.5680   18.4850   -5.4530 C   0  0  0  0  0  0  0  0  0  0  0  0
   -3.5350   14.2910   -2.9870 C   0  0  0  0  0  0  0  0  0  0  0  0
   -4.0430   14.8130   -1.6910 C   0  0  0  0  0  0  0  0  0  0  0  0
   -3.2180   15.0910   -0.5070 C   0  0  0  0  0  0  0  0  0  0  0  0
   -5.3300   14.9890   -1.6750 C   0  0  0  0  0  0  0  0  0  0  0  0
   -6.0370   15.4580   -0.5040 C   0  0  1  0  0  0  0  0  0  0  0  0
   -3.7760   15.2830    0.7050 C   0  0  0  0  0  0  0  0  0  0  0  0
   -7.4020   14.8330   -0.4520 C   0  0  0  0  0  0  0  0  0  0  0  0
   -5.2610   15.1850    0.7680 C   0  0  0  0  0  0  0  0  0  0  0  0
   -8.0150   14.4270   -1.4340 O   0  0  0  0  0  0  0  0  0  0  0  0
   -8.0250   14.6930    0.8820 C   0  0  0  0  0  0  0  0  0  0  0  0
   -5.8430   14.8590    1.8770 N   0  0  0  0  0  0  0  0  0  0  0  0
   -9.4020   14.5470    0.9360 O   0  0  0  0  0  0  0  0  0  0  0  0
   -7.2160   14.7200    1.9520 C   0  0  0  0  0  0  0  0  0  0  0  0
   -7.7510   14.5950    3.3560 C   0  0  0  0  0  0  0  0  0  0  0  0
  1  2  1  0
  2  3  2  0
  2  4  1  0
  4  5  1  0
  5  6  1  0
  6  7  2  0
  6  8  1  0
  7  9  1  0
  8 10  2  0
  7 11  1  0
  9 12  2  0
 10 12  1  0
  9 13  1  0
 11 14  2  0
 12 15  1  0
 13 16  2  0
 14 16  1  0
 15 17  1  0
 17 18  1  0
 18 19  1  0
 18 20  2  0
 21 20  1  6
 19 22  2  0
 21 23  1  0
 21 24  1  0
 22 24  1  0
 23 25  2  0
 23 26  1  0
 24 27  2  0
 26 28  1  0
 26 29  2  0
 27 29  1  0
 29 30  1  0
M  END
