mac-x0588-diamond-x0282_0_A
     RDKit          3D

 23 26  0  0  0  0  0  0  0  0999 V2000
   -4.7570   16.2050   -0.1580 N   0  0  0  0  0  0  0  0  0  0  0  0
   -4.1540   15.2320   -0.9980 C   0  0  2  0  0  0  0  0  0  0  0  0
   -2.9250   14.6390   -0.4530 C   0  0  1  0  0  0  0  0  0  0  0  0
   -3.8920   15.8860   -2.2230 N   0  0  0  0  0  0  0  0  0  0  0  0
   -2.8960   15.2220   -3.0350 C   0  0  0  0  0  0  0  0  0  0  0  0
   -1.6830   15.3100   -0.9250 C   0  0  2  0  0  0  0  0  0  0  0  0
   -2.8620   14.3340    0.9820 C   0  0  1  0  0  0  0  0  0  0  0  0
   -1.6490   14.9810   -2.3280 N   0  0  0  0  0  0  0  0  0  0  0  0
   -0.6400   14.6250   -0.1630 N   0  0  0  0  0  0  0  0  0  0  0  0
   -1.2760   14.2880    1.1440 C   0  0  0  0  0  0  0  0  0  0  0  0
   -3.6490   15.2440    1.9300 C   0  0  0  0  0  0  0  0  0  0  0  0
   -3.7950   13.1150    0.8150 C   0  0  0  0  0  0  0  0  0  0  0  0
   -0.4300   15.3310   -3.0450 C   0  0  0  0  0  0  0  0  0  0  0  0
   -5.1050   14.8060    2.1870 C   0  0  0  0  0  0  0  0  0  0  0  0
   -5.1700   13.4340    0.1820 C   0  0  0  0  0  0  0  0  0  0  0  0
   -0.2730   16.7230   -3.7180 C   0  0  2  0  0  0  0  0  0  0  0  0
   -5.9250   14.5100    0.9360 C   0  0  1  0  0  0  0  0  0  0  0  0
   -7.3470   14.0420    1.2810 C   0  0  0  0  0  0  0  0  0  0  0  0
   -1.4680   17.3110   -4.3060 O   0  0  0  0  0  0  0  0  0  0  0  0
    0.6560   16.5640   -4.9040 C   0  0  0  0  0  0  0  0  0  0  0  0
   -8.2920   14.5380    0.3350 O   0  0  0  0  0  0  0  0  0  0  0  0
    0.4740   17.8890   -5.5850 C   0  0  0  0  0  0  0  0  0  0  0  0
   -1.0210   18.1300   -5.3990 C   0  0  0  0  0  0  0  0  0  0  0  0
  2  1  1  1
  3  2  1  1
  2  4  1  0
  4  5  1  0
  3  6  1  0
  3  7  1  0
  5  8  1  0
  6  8  1  0
  6  9  1  1
  7 10  1  1
  9 10  1  0
  7 11  1  0
  7 12  1  0
  8 13  1  0
 11 14  1  0
 12 15  1  0
 16 13  1  6
 14 17  1  0
 15 17  1  0
 17 18  1  1
 16 19  1  0
 16 20  1  0
 18 21  1  0
 20 22  1  0
 19 23  1  0
 22 23  1  0
M  END
