mac-x0455-diamond-x0438_0_A
     RDKit          3D

 28 30  0  0  0  0  0  0  0  0999 V2000
   -1.9480   13.6930   -2.2950 C   0  0  0  0  0  0  0  0  0  0  0  0
   -0.7820   13.9570   -3.2610 C   0  0  1  0  0  0  0  0  0  0  0  0
   -1.0010   15.2400   -3.8700 O   0  0  0  0  0  0  0  0  0  0  0  0
    0.5190   14.0020   -2.4260 C   0  0  0  0  0  0  0  0  0  0  0  0
   -0.8410   12.8270   -4.3060 C   0  0  0  0  0  0  0  0  0  0  0  0
    1.1720   14.9910   -2.1450 O   0  0  0  0  0  0  0  0  0  0  0  0
    0.9350   12.8010   -1.9790 O   0  0  0  0  0  0  0  0  0  0  0  0
   -1.7320   16.1440   -3.0530 C   0  0  0  0  0  0  0  0  0  0  0  0
   -1.9210   11.9280   -4.3500 C   0  0  0  0  0  0  0  0  0  0  0  0
    0.1940   12.6680   -5.2460 C   0  0  0  0  0  0  0  0  0  0  0  0
   -3.1730   15.6680   -3.0970 C   0  0  0  0  0  0  0  0  0  0  0  0
   -1.9600   10.9040   -5.3000 C   0  0  0  0  0  0  0  0  0  0  0  0
    0.1550   11.6460   -6.1950 C   0  0  0  0  0  0  0  0  0  0  0  0
   -0.9240   10.7640   -6.2190 C   0  0  0  0  0  0  0  0  0  0  0  0
   -3.8650   15.4280   -1.7650 C   0  0  0  0  0  0  0  0  0  0  0  0
   -5.2260   15.1120   -1.8270 C   0  0  0  0  0  0  0  0  0  0  0  0
   -3.2100   15.4970   -0.5120 C   0  0  0  0  0  0  0  0  0  0  0  0
   -5.8870   14.8620   -0.6320 C   0  0  0  0  0  0  0  0  0  0  0  0
   -3.9090   15.2410    0.6860 C   0  0  0  0  0  0  0  0  0  0  0  0
   -7.1920   14.5230   -0.3710 N   0  0  0  0  0  0  0  0  0  0  0  0
   -5.2770   14.9130    0.6070 C   0  0  0  0  0  0  0  0  0  0  0  0
   -7.3330   14.3740    0.9890 C   0  0  0  0  0  0  0  0  0  0  0  0
   -6.1880   14.6100    1.5970 N   0  0  0  0  0  0  0  0  0  0  0  0
   -8.6210   13.9870    1.6280 C   0  0  0  0  0  0  0  0  0  0  0  0
   -9.3370   15.3080    2.5930 S   0  0  0  0  0  0  0  0  0  0  0  0
   -8.1850   15.6060    3.9230 C   0  0  0  0  0  0  0  0  0  0  0  0
  -10.5670   14.8020    3.1760 O   0  0  0  0  0  0  0  0  0  0  0  0
   -9.4020   16.4830    1.7520 O   0  0  0  0  0  0  0  0  0  0  0  0
  2  1  1  1
  2  3  1  0
  2  4  1  0
  2  5  1  0
  4  6  2  0
  4  7  1  0
  3  8  1  0
  5  9  2  0
  5 10  1  0
  8 11  1  0
  9 12  1  0
 10 13  2  0
 12 14  2  0
 13 14  1  0
 11 15  1  0
 15 16  2  0
 15 17  1  0
 16 18  1  0
 17 19  2  0
 18 20  1  0
 18 21  2  0
 19 21  1  0
 20 22  1  0
 21 23  1  0
 22 23  2  0
 22 24  1  0
 25 24  1  0
 25 26  1  0
 25 27  2  0
 25 28  2  0
M  END
