mac-x0347-diamond-x0438_0_A
     RDKit          3D

 24 26  0  0  0  0  0  0  0  0999 V2000
    1.2690   14.6220   -3.5730 O   0  0  0  0  0  0  0  0  0  0  0  0
    0.4930   14.1140   -2.6050 C   0  0  0  0  0  0  0  0  0  0  0  0
    0.9690   13.4330   -1.7190 O   0  0  0  0  0  0  0  0  0  0  0  0
   -0.9290   14.4770   -2.7520 C   0  0  0  0  0  0  0  0  0  0  0  0
   -1.8020   14.5600   -1.6740 C   0  0  0  0  0  0  0  0  0  0  0  0
   -1.4340   14.7430   -4.0180 C   0  0  0  0  0  0  0  0  0  0  0  0
   -3.1440   14.9130   -1.8740 C   0  0  0  0  0  0  0  0  0  0  0  0
   -2.7270   15.0890   -4.2600 N   0  0  0  0  0  0  0  0  0  0  0  0
   -3.5470   15.1580   -3.1800 C   0  0  0  0  0  0  0  0  0  0  0  0
   -4.0420   15.0100   -0.7240 C   0  0  0  0  0  0  0  0  0  0  0  0
   -3.4940   14.9690    0.5030 C   0  0  0  0  0  0  0  0  0  0  0  0
   -5.5500   15.2100   -0.8240 C   0  0  1  0  0  0  0  0  0  0  0  0
   -4.3010   15.0720    1.6850 C   0  0  0  0  0  0  0  0  0  0  0  0
   -6.4110   14.7070   -1.9200 N   0  0  0  0  0  0  0  0  0  0  0  0
   -6.2760   14.7770    0.4090 C   0  0  0  0  0  0  0  0  0  0  0  0
   -5.6320   14.9700    1.6410 C   0  0  0  0  0  0  0  0  0  0  0  0
   -7.4840   14.2910    0.1990 C   0  0  0  0  0  0  0  0  0  0  0  0
   -7.4760   14.2710   -1.2790 C   0  0  0  0  0  0  0  0  0  0  0  0
   -8.5820   13.8050    1.1100 C   0  0  0  0  0  0  0  0  0  0  0  0
   -6.5290   15.0250    2.7830 C   0  0  0  0  0  0  0  0  0  0  0  0
   -9.4060   15.0850    2.1180 S   0  0  0  0  0  0  0  0  0  0  0  0
   -8.5930   15.2270    3.7070 C   0  0  0  0  0  0  0  0  0  0  0  0
  -10.7180   14.5640    2.4590 O   0  0  0  0  0  0  0  0  0  0  0  0
   -9.3260   16.3720    1.4670 O   0  0  0  0  0  0  0  0  0  0  0  0
  1  2  1  0
  2  3  2  0
  2  4  1  0
  4  5  2  0
  4  6  1  0
  5  7  1  0
  6  8  2  0
  7  9  2  0
  8  9  1  0
  7 10  1  0
 10 11  2  0
 10 12  1  0
 11 13  1  0
 12 14  1  6
 12 15  1  0
 13 16  2  0
 15 16  1  0
 15 17  2  0
 14 18  2  0
 17 18  1  0
 17 19  1  0
 16 20  1  0
 21 19  1  0
 21 22  1  0
 21 23  2  0
 21 24  2  0
M  END
