mac-x0303-mac-x0567
     RDKit          3D

 18 20  0  0  0  0  0  0  0  0999 V2000
   -8.2680   12.8960    2.6520 N   0  0  0  0  0  0  0  0  0  0  0  0
   -8.3920   14.4540    2.0190 S   0  0  0  0  0  0  0  0  0  0  0  0
   -8.2000   15.3870    3.1070 O   0  0  0  0  0  0  0  0  0  0  0  0
   -9.5520   14.5270    1.1620 O   0  0  0  0  0  0  0  0  0  0  0  0
   -6.9900   14.6690    0.9580 C   0  0  0  0  0  0  0  0  0  0  0  0
   -7.0900   14.8750   -0.3950 N   0  0  0  0  0  0  0  0  0  0  0  0
   -5.7160   14.6640    1.3500 N   0  0  0  0  0  0  0  0  0  0  0  0
   -5.8180   15.0090   -0.8640 C   0  0  0  0  0  0  0  0  0  0  0  0
   -4.9710   14.8800    0.2130 C   0  0  0  0  0  0  0  0  0  0  0  0
   -5.4720   15.2360   -2.1960 C   0  0  0  0  0  0  0  0  0  0  0  0
   -3.4640   14.9840    0.0640 C   0  0  1  0  0  0  0  0  0  0  0  0
   -4.1770   15.5190   -2.4170 C   0  0  0  0  0  0  0  0  0  0  0  0
   -3.1090   15.6040   -1.3300 C   0  0  0  0  0  0  0  0  0  0  0  0
   -2.8530   15.6570    1.2400 N   0  0  0  0  0  0  0  0  0  0  0  0
   -2.6520   13.7170    0.0940 C   0  0  0  0  0  0  0  0  0  0  0  0
   -1.2900   14.3680    0.2840 C   0  0  1  0  0  0  0  0  0  0  0  0
   -1.5390   15.0440    1.5140 N   0  0  0  0  0  0  0  0  0  0  0  0
   -0.1490   13.4980    0.3730 N   0  0  0  0  0  0  0  0  0  0  0  0
  2  1  1  0
  2  3  2  0
  2  4  2  0
  2  5  1  0
  5  6  1  0
  5  7  2  0
  6  8  1  0
  7  9  1  0
  8  9  2  0
  8 10  1  0
  9 11  1  0
 10 12  2  0
 11 13  1  6
 12 13  1  0
 11 14  1  0
 11 15  1  0
 15 16  1  0
 14 17  1  0
 16 17  1  0
 16 18  1  1
M  END
