mac-x0190-mac-x0188
     RDKit          3D

 19 21  0  0  0  0  0  0  0  0999 V2000
   -8.5070   14.8800    2.0430 O   0  0  0  0  0  0  0  0  0  0  0  0
   -8.2450   13.9460    0.9930 C   0  0  0  0  0  0  0  0  0  0  0  0
   -6.8820   14.2250    0.4320 C   0  0  0  0  0  0  0  0  0  0  0  0
   -6.4080   13.6230   -0.7280 N   0  0  0  0  0  0  0  0  0  0  0  0
   -5.9610   15.0340    0.9150 N   0  0  0  0  0  0  0  0  0  0  0  0
   -5.1200   14.0920   -0.9610 C   0  0  0  0  0  0  0  0  0  0  0  0
   -4.9010   14.9610    0.0570 C   0  0  0  0  0  0  0  0  0  0  0  0
   -4.1320   13.7520   -2.0760 C   0  0  0  0  0  0  0  0  0  0  0  0
   -3.6790   15.6760    0.1260 C   0  0  0  0  0  0  0  0  0  0  0  0
   -2.7990   14.6850   -2.1320 C   0  0  2  0  0  0  0  0  0  0  0  0
   -2.7200   15.5830   -0.8600 C   0  0  0  0  0  0  0  0  0  0  0  0
   -2.8550   15.3460   -3.4940 N   0  0  0  0  0  0  0  0  0  0  0  0
   -1.3100   14.2580   -2.5250 C   0  0  1  0  0  0  0  0  0  0  0  0
   -0.2310   13.8640   -1.5490 C   0  0  0  0  0  0  0  0  0  0  0  0
   -1.3570   13.5180   -3.8340 C   0  0  1  0  0  0  0  0  0  0  0  0
   -2.2720   14.3880   -4.5170 O   0  0  0  0  0  0  0  0  0  0  0  0
   -0.0020   13.4230   -4.5680 C   0  0  0  0  0  0  0  0  0  0  0  0
    0.5940   14.6620   -1.1300 O   0  0  0  0  0  0  0  0  0  0  0  0
   -0.1600   12.5700   -1.1610 O   0  0  0  0  0  0  0  0  0  0  0  0
  1  2  1  0
  2  3  1  0
  3  4  1  0
  3  5  2  0
  4  6  1  0
  5  7  1  0
  6  7  2  0
  6  8  1  0
  7  9  1  0
 10  8  1  1
  9 11  2  0
 10 11  1  0
 10 12  1  0
 10 13  1  0
 13 14  1  1
 13 15  1  0
 12 16  1  0
 15 16  1  0
 15 17  1  6
 14 18  2  0
 14 19  1  0
M  END
