mac-x0415-mac-x0337
     RDKit          3D

 27 29  0  0  0  0  0  0  0  0999 V2000
   -0.0080   11.0700   -3.1630 O   0  0  0  0  0  0  0  0  0  0  0  0
    0.7630   12.1780   -3.2270 C   0  0  0  0  0  0  0  0  0  0  0  0
    1.2550   12.6800   -2.2270 O   0  0  0  0  0  0  0  0  0  0  0  0
    0.9430   12.7420   -4.6270 C   0  0  0  0  0  0  0  0  0  0  0  0
    0.7270   14.1960   -4.5670 C   0  0  0  0  0  0  0  0  0  0  0  0
    1.7800   15.1910   -4.3970 C   0  0  0  0  0  0  0  0  0  0  0  0
   -0.3370   14.9930   -4.6500 C   0  0  0  0  0  0  0  0  0  0  0  0
    1.4470   16.4420   -4.3660 N   0  0  0  0  0  0  0  0  0  0  0  0
    0.0190   16.4140   -4.4400 C   0  0  1  0  0  0  0  0  0  0  0  0
   -1.7230   14.7260   -4.8500 C   0  0  0  0  0  0  0  0  0  0  0  0
   -0.7100   17.3740   -5.3150 C   0  0  0  0  0  0  0  0  0  0  0  0
   -2.4980   15.7120   -5.3630 C   0  0  0  0  0  0  0  0  0  0  0  0
   -3.8410   15.4590   -5.5090 O   0  0  0  0  0  0  0  0  0  0  0  0
   -1.9390   17.0210   -5.7420 C   0  0  0  0  0  0  0  0  0  0  0  0
   -4.2760   14.7490   -4.3330 C   0  0  0  0  0  0  0  0  0  0  0  0
   -3.2880   15.1310   -3.2180 C   0  0  0  0  0  0  0  0  0  0  0  0
   -3.9650   15.6370   -2.0240 N   0  0  0  0  0  0  0  0  0  0  0  0
   -3.8470   14.7910   -0.7710 S   0  0  1  0  0  0  0  0  0  0  0  0
   -2.7360   14.7650    0.1490 O   0  0  0  0  0  0  0  0  0  0  0  0
   -5.0470   15.5360    0.1120 N   0  0  0  0  0  0  0  0  0  0  0  0
   -4.3960   13.1590   -1.1610 C   0  0  0  0  0  0  0  0  0  0  0  0
   -3.6100   12.3320   -1.9690 C   0  0  0  0  0  0  0  0  0  0  0  0
   -5.6190   12.7110   -0.6610 C   0  0  0  0  0  0  0  0  0  0  0  0
   -4.0560   11.0480   -2.2790 C   0  0  0  0  0  0  0  0  0  0  0  0
   -6.0600   11.4280   -0.9740 C   0  0  0  0  0  0  0  0  0  0  0  0
   -5.2850   10.5880   -1.7850 C   0  0  0  0  0  0  0  0  0  0  0  0
   -5.7570    9.2050   -2.1200 C   0  0  0  0  0  0  0  0  0  0  0  0
  1  2  1  0
  2  3  2  0
  2  4  1  0
  4  5  1  0
  5  6  1  0
  5  7  2  0
  6  8  2  0
  7  9  1  0
  8  9  1  0
  7 10  1  0
  9 11  1  6
 10 12  2  0
 12 13  1  0
 11 14  2  0
 12 14  1  0
 13 15  1  0
 15 16  1  0
 16 17  1  0
 17 18  2  0
 18 19  2  0
 18 20  1  1
 18 21  1  0
 21 22  2  0
 21 23  1  0
 22 24  1  0
 23 25  2  0
 24 26  2  0
 25 26  1  0
 26 27  1  0
M  END
