mac-x0163-mac-x0223
     RDKit          3D

 24 26  0  0  0  0  0  0  0  0999 V2000
   -4.0700   15.4240   -1.2820 Cl  0  0  0  0  0  0  0  0  0  0  0  0
   -2.6630   15.0110   -0.3740 C   0  0  0  0  0  0  0  0  0  0  0  0
   -2.6950   15.0460    1.0100 C   0  0  0  0  0  0  0  0  0  0  0  0
   -1.4590   14.6290   -0.9680 C   0  0  0  0  0  0  0  0  0  0  0  0
   -3.8530   15.4190    1.7040 N   0  0  0  0  0  0  0  0  0  0  0  0
   -0.3740   14.3170   -0.2230 N   0  0  0  0  0  0  0  0  0  0  0  0
   -1.6320   14.7280    1.7640 N   0  0  0  0  0  0  0  0  0  0  0  0
   -1.3520   14.5620   -2.3930 N   0  0  0  0  0  0  0  0  0  0  0  0
   -0.5200   14.3840    1.1080 C   0  0  0  0  0  0  0  0  0  0  0  0
   -2.0130   13.5510   -3.2400 C   0  0  0  0  0  0  0  0  0  0  0  0
   -1.2920   15.9520   -2.8990 C   0  0  0  0  0  0  0  0  0  0  0  0
   -1.4880   13.6340   -4.6860 C   0  0  0  0  0  0  0  0  0  0  0  0
   -1.9230   12.1000   -2.6630 C   0  0  0  0  0  0  0  0  0  0  0  0
   -3.5570   13.4080   -3.0770 C   0  0  0  0  0  0  0  0  0  0  0  0
   -0.7830   16.0620   -4.3670 C   0  0  2  0  0  0  0  0  0  0  0  0
    0.2430   17.0960   -4.3150 O   0  0  0  0  0  0  0  0  0  0  0  0
   -1.8440   16.5880   -5.1760 O   0  0  0  0  0  0  0  0  0  0  0  0
   -0.3230   14.6300   -4.8590 C   0  0  1  0  0  0  0  0  0  0  0  0
   -3.3190   12.2880   -2.0490 C   0  0  0  0  0  0  0  0  0  0  0  0
    0.8530   17.5740   -5.5090 C   0  0  0  0  0  0  0  0  0  0  0  0
    0.9710   14.0380   -4.2430 C   0  0  0  0  0  0  0  0  0  0  0  0
    0.8140   12.8330   -3.3210 C   0  0  0  0  0  0  0  0  0  0  0  0
    0.2240   11.7970   -3.6130 O   0  0  0  0  0  0  0  0  0  0  0  0
    1.4080   13.0140   -2.1220 O   0  0  0  0  0  0  0  0  0  0  0  0
  1  2  1  0
  2  3  2  0
  2  4  1  0
  3  5  1  0
  4  6  2  0
  3  7  1  0
  4  8  1  0
  6  9  1  0
  7  9  2  0
 10  8  1  0
  8 11  1  0
 10 12  1  0
 10 13  1  0
 10 14  1  0
 11 15  1  0
 15 16  1  0
 15 17  1  6
 12 18  1  0
 15 18  1  0
 13 19  1  0
 14 19  1  0
 16 20  1  0
 18 21  1  1
 21 22  1  0
 22 23  2  0
 22 24  1  0
M  END
