mac-x0277-diamond-x0128_0_A
     RDKit          3D

 31 33  0  0  0  0  0  0  0  0999 V2000
   -1.2580   18.2380   -5.3090 Cl  0  0  0  0  0  0  0  0  0  0  0  0
   -0.4850   16.7300   -4.9700 C   0  0  0  0  0  0  0  0  0  0  0  0
   -1.1300   15.4990   -5.1260 C   0  0  0  0  0  0  0  0  0  0  0  0
    0.8390   16.7660   -4.5230 C   0  0  0  0  0  0  0  0  0  0  0  0
   -2.5400   15.3340   -5.5930 C   0  0  0  0  0  0  0  0  0  0  0  0
   -0.4390   14.3240   -4.8330 C   0  0  0  0  0  0  0  0  0  0  0  0
    1.5140   15.5750   -4.2320 C   0  0  0  0  0  0  0  0  0  0  0  0
   -3.5110   15.6690   -4.5140 C   0  0  0  0  0  0  0  0  0  0  0  0
    0.8760   14.3480   -4.3880 C   0  0  0  0  0  0  0  0  0  0  0  0
    1.5650   13.0420   -4.0790 C   0  0  0  0  0  0  0  0  0  0  0  0
   -3.4960   14.8850   -3.2180 C   0  0  0  0  0  0  0  0  0  0  0  0
    0.9410   12.3890   -2.8670 C   0  0  0  0  0  0  0  0  0  0  0  0
   -4.9190   14.5220   -2.8160 C   0  0  0  0  0  0  0  0  0  0  0  0
    0.2920   11.2470   -3.1700 O   0  0  0  0  0  0  0  0  0  0  0  0
    0.9610   12.7840   -1.7170 O   0  0  0  0  0  0  0  0  0  0  0  0
   -5.2610   14.6610   -1.3660 C   0  0  0  0  0  0  0  0  0  0  0  0
   -6.5810   14.4250   -0.9950 C   0  0  0  0  0  0  0  0  0  0  0  0
   -4.3210   15.0030   -0.3860 C   0  0  0  0  0  0  0  0  0  0  0  0
   -6.9740   14.5100    0.3300 C   0  0  0  0  0  0  0  0  0  0  0  0
   -4.7160   15.0890    0.9520 C   0  0  0  0  0  0  0  0  0  0  0  0
   -6.0460   14.8360    1.3100 C   0  0  0  0  0  0  0  0  0  0  0  0
   -6.5060   14.8900    2.6300 N   0  0  0  0  0  0  0  0  0  0  0  0
   -7.7380   15.2380    3.1510 C   0  0  0  0  0  0  0  0  0  0  0  0
   -8.7710   15.3930    2.5100 O   0  0  0  0  0  0  0  0  0  0  0  0
   -7.6010   15.3980    4.5260 N   0  0  0  0  0  0  0  0  0  0  0  0
   -8.4470   16.1210    5.3960 C   0  0  0  0  0  0  0  0  0  0  0  0
   -9.1170   17.2510    4.9240 C   0  0  0  0  0  0  0  0  0  0  0  0
   -8.6630   15.7770    6.7240 C   0  0  0  0  0  0  0  0  0  0  0  0
   -9.9510   18.0200    5.6610 N   0  0  0  0  0  0  0  0  0  0  0  0
   -9.5160   16.5480    7.5120 C   0  0  0  0  0  0  0  0  0  0  0  0
  -10.1310   17.6510    6.9420 C   0  0  0  0  0  0  0  0  0  0  0  0
  1  2  1  0
  2  3  2  0
  2  4  1  0
  3  5  1  0
  3  6  1  0
  4  7  2  0
  5  8  1  0
  6  9  2  0
  7  9  1  0
  9 10  1  0
  8 11  1  0
 10 12  1  0
 11 13  1  0
 12 14  1  0
 12 15  2  0
 13 16  1  0
 16 17  2  0
 16 18  1  0
 17 19  1  0
 18 20  2  0
 19 21  2  0
 20 21  1  0
 21 22  1  0
 22 23  1  0
 23 24  2  0
 23 25  1  0
 25 26  1  0
 26 27  2  0
 26 28  1  0
 27 29  1  0
 28 30  2  0
 29 31  2  0
 30 31  1  0
M  END
