mac-x0182-diamond-x0849_0_A
     RDKit          3D

 25 28  0  0  0  0  0  0  0  0999 V2000
    1.7030   11.8770   -6.9180 O   0  0  0  0  0  0  0  0  0  0  0  0
    0.7340   11.5830   -6.2600 C   0  0  0  0  0  0  0  0  0  0  0  0
    0.3960   12.1510   -5.0600 N   0  0  0  0  0  0  0  0  0  0  0  0
   -0.2260   10.5210   -6.6510 C   0  0  0  0  0  0  0  0  0  0  0  0
   -0.7680   11.2330   -4.2670 S   0  0  2  0  0  0  0  0  0  0  0  0
   -1.1190   10.2210   -5.6310 C   0  0  0  0  0  0  0  0  0  0  0  0
   -0.2900    9.8540   -7.8630 C   0  0  0  0  0  0  0  0  0  0  0  0
   -1.9100   12.2380   -4.0830 N   0  0  0  0  0  0  0  0  0  0  0  0
   -0.0750   10.4660   -3.2600 O   0  0  0  0  0  0  0  0  0  0  0  0
   -2.1070    9.2600   -5.7550 C   0  0  0  0  0  0  0  0  0  0  0  0
   -1.2820    8.8740   -8.0210 C   0  0  0  0  0  0  0  0  0  0  0  0
   -2.0010   13.0830   -2.8660 C   0  0  0  0  0  0  0  0  0  0  0  0
   -2.1780    8.5820   -6.9740 C   0  0  0  0  0  0  0  0  0  0  0  0
   -2.1620   14.5730   -3.2470 C   0  0  0  0  0  0  0  0  0  0  0  0
   -3.2080   15.2560   -2.5190 O   0  0  0  0  0  0  0  0  0  0  0  0
   -3.3720   15.1770   -1.1440 C   0  0  0  0  0  0  0  0  0  0  0  0
   -2.2370   14.8710   -0.3410 C   0  0  0  0  0  0  0  0  0  0  0  0
   -4.5860   15.3850   -0.5090 C   0  0  0  0  0  0  0  0  0  0  0  0
   -2.4110   14.7940    1.0510 C   0  0  0  0  0  0  0  0  0  0  0  0
   -4.6280   15.2820    0.8610 C   0  0  0  0  0  0  0  0  0  0  0  0
   -0.9360   14.6450   -0.8390 C   0  0  0  0  0  0  0  0  0  0  0  0
   -3.5760   14.9950    1.6220 N   0  0  0  0  0  0  0  0  0  0  0  0
   -1.4200   14.5170    1.8690 N   0  0  0  0  0  0  0  0  0  0  0  0
    0.0980   14.3600    0.0300 C   0  0  0  0  0  0  0  0  0  0  0  0
   -0.2060   14.3080    1.3710 C   0  0  0  0  0  0  0  0  0  0  0  0
  1  2  2  0
  2  3  1  0
  2  4  1  0
  5  3  1  6
  4  6  2  0
  5  6  1  0
  4  7  1  0
  5  8  2  0
  5  9  2  0
  6 10  1  0
  7 11  2  0
  8 12  1  0
 10 13  2  0
 11 13  1  0
 12 14  1  0
 14 15  1  0
 15 16  1  0
 16 17  1  0
 16 18  2  0
 17 19  2  0
 18 20  1  0
 17 21  1  0
 19 22  1  0
 20 22  2  0
 19 23  1  0
 21 24  2  0
 23 25  2  0
 24 25  1  0
M  END
