mac-x0436-diamond-x0805_0_A
     RDKit          3D

 30 33  0  0  0  0  0  0  0  0999 V2000
    0.4760   11.4280   -2.8180 O   0  0  0  0  0  0  0  0  0  0  0  0
    0.8760   12.7140   -3.2420 C   0  0  0  0  0  0  0  0  0  0  0  0
    1.1970   13.4950   -2.0960 O   0  0  0  0  0  0  0  0  0  0  0  0
    2.0370   12.6870   -4.2140 C   0  0  0  0  0  0  0  0  0  0  0  0
   -0.1470   13.4390   -4.1510 C   0  0  2  0  0  0  0  0  0  0  0  0
    1.5410   12.4510   -5.6640 C   0  0  0  0  0  0  0  0  0  0  0  0
    0.5480   13.9640   -5.3900 C   0  0  0  0  0  0  0  0  0  0  0  0
   -0.8920   14.6530   -3.6650 C   0  0  1  0  0  0  0  0  0  0  0  0
    0.3840   11.4450   -5.9210 C   0  0  0  0  0  0  0  0  0  0  0  0
   -2.0420   14.3920   -2.7270 C   0  0  0  0  0  0  0  0  0  0  0  0
    1.5840   14.8950   -5.0790 O   0  0  0  0  0  0  0  0  0  0  0  0
    0.1660   15.6850   -3.2200 C   0  0  0  0  0  0  0  0  0  0  0  0
   -0.8610   11.2740   -4.9970 C   0  0  0  0  0  0  0  0  0  0  0  0
    0.5040   10.6970   -6.9780 N   0  0  0  0  0  0  0  0  0  0  0  0
   -3.1820   13.7560   -3.2290 C   0  0  0  0  0  0  0  0  0  0  0  0
   -2.0070   14.7640   -1.3920 C   0  0  0  0  0  0  0  0  0  0  0  0
    1.5670   15.4230   -3.7640 C   0  0  0  0  0  0  0  0  0  0  0  0
   -0.9090   11.6450   -3.8380 O   0  0  0  0  0  0  0  0  0  0  0  0
   -1.9290   10.6450   -5.5850 N   0  0  0  0  0  0  0  0  0  0  0  0
   -0.4760    9.7350   -7.2390 C   0  0  0  0  0  0  0  0  0  0  0  0
   -3.0850   14.5230   -0.5590 C   0  0  0  0  0  0  0  0  0  0  0  0
   -4.2720   13.5020   -2.4010 C   0  0  0  0  0  0  0  0  0  0  0  0
   -3.1300   14.8670    0.7580 O   0  0  0  0  0  0  0  0  0  0  0  0
   -1.6970    9.6840   -6.5570 C   0  0  0  0  0  0  0  0  0  0  0  0
   -0.2110    8.7900   -8.2170 C   0  0  0  0  0  0  0  0  0  0  0  0
   -4.2200   13.8890   -1.0660 C   0  0  0  0  0  0  0  0  0  0  0  0
   -4.1710   15.7540    1.1410 C   0  0  0  0  0  0  0  0  0  0  0  0
   -1.1470    7.8020   -8.5150 C   0  0  0  0  0  0  0  0  0  0  0  0
   -2.6430    8.7050   -6.8410 C   0  0  0  0  0  0  0  0  0  0  0  0
   -2.3640    7.7580   -7.8260 C   0  0  0  0  0  0  0  0  0  0  0  0
  2  1  1  0
  2  3  1  0
  2  4  1  0
  5  2  1  1
  4  6  1  0
  5  7  1  0
  5  8  1  0
  6  9  1  0
  8 10  1  1
  7 11  1  0
  8 12  1  0
  9 13  1  0
  9 14  2  0
 10 15  2  0
 10 16  1  0
 11 17  1  0
 12 17  1  0
 13 18  2  0
 13 19  1  0
 14 20  1  0
 16 21  2  0
 15 22  1  0
 21 23  1  0
 19 24  1  0
 20 24  2  0
 20 25  1  0
 21 26  1  0
 22 26  2  0
 23 27  1  0
 25 28  2  0
 24 29  1  0
 28 30  1  0
 29 30  2  0
M  END
