mac-x0392-mac-x0572
     RDKit          3D

 18 19  0  0  0  0  0  0  0  0999 V2000
   -0.2590   13.9820   -0.0260 N   0  0  0  0  0  0  0  0  0  0  0  0
   -1.4220   14.8660    0.1720 C   0  0  2  0  0  0  0  0  0  0  0  0
   -2.4130   14.3490    1.2490 C   0  0  0  0  0  0  0  0  0  0  0  0
   -2.0680   15.3280   -1.1530 C   0  0  1  0  0  0  0  0  0  0  0  0
   -1.3320   14.8570   -2.4030 C   0  0  0  0  0  0  0  0  0  0  0  0
   -3.5910   15.0320   -1.3250 C   0  0  0  0  0  0  0  0  0  0  0  0
   -3.6780   13.7000    0.8160 N   0  0  0  0  0  0  0  0  0  0  0  0
   -1.8260   14.4370   -3.4380 O   0  0  0  0  0  0  0  0  0  0  0  0
    0.0110   14.9490   -2.3100 O   0  0  0  0  0  0  0  0  0  0  0  0
   -4.4400   14.6050   -0.0730 C   0  0  2  0  0  0  0  0  0  0  0  0
   -5.9570   14.2880   -0.4810 C   0  0  0  0  0  0  0  0  0  0  0  0
   -4.6470   15.7460    0.8830 C   0  0  0  0  0  0  0  0  0  0  0  0
   -6.3440   14.2770   -1.6560 O   0  0  0  0  0  0  0  0  0  0  0  0
   -7.0570   14.0060    0.5700 C   0  0  2  0  0  0  0  0  0  0  0  0
   -5.4130   15.3120    2.0780 N   0  0  0  0  0  0  0  0  0  0  0  0
   -8.3030   14.6570    0.2720 O   0  0  0  0  0  0  0  0  0  0  0  0
   -6.5860   14.3930    1.9650 C   0  0  1  0  0  0  0  0  0  0  0  0
   -7.7400   14.8490    2.8750 C   0  0  0  0  0  0  0  0  0  0  0  0
  2  1  1  6
  2  3  1  0
  2  4  1  0
  4  5  1  6
  4  6  1  0
  3  7  1  0
  5  8  2  0
  5  9  1  0
 10  6  1  6
  7 10  1  0
 10 11  1  0
 10 12  1  0
 11 13  2  0
 11 14  1  0
 12 15  1  0
 14 16  1  6
 14 17  1  0
 15 17  1  0
 17 18  1  6
M  END
