mac-x0358-mac-x0398
     RDKit          3D

 22 23  0  0  0  0  0  0  0  0999 V2000
    0.6340   12.4830   -1.3380 O   0  0  0  0  0  0  0  0  0  0  0  0
    0.3920   12.0720   -2.6030 C   0  0  0  0  0  0  0  0  0  0  0  0
    0.1390   10.9160   -2.9000 O   0  0  0  0  0  0  0  0  0  0  0  0
    0.4680   13.1780   -3.6030 C   0  0  0  0  0  0  0  0  0  0  0  0
   -0.7800   13.3610   -4.4290 C   0  0  0  0  0  0  0  0  0  0  0  0
   -0.9420   12.6550   -5.6180 C   0  0  0  0  0  0  0  0  0  0  0  0
   -1.8440   14.2290   -4.0770 C   0  0  0  0  0  0  0  0  0  0  0  0
   -0.0110   11.7610   -6.0480 O   0  0  0  0  0  0  0  0  0  0  0  0
   -1.8980   14.9750   -2.8840 O   0  0  0  0  0  0  0  0  0  0  0  0
   -2.0580   12.8140   -6.4320 C   0  0  0  0  0  0  0  0  0  0  0  0
   -2.9560   14.3930   -4.9070 C   0  0  0  0  0  0  0  0  0  0  0  0
   -3.2170   15.4220   -2.7940 C   0  0  0  0  0  0  0  0  0  0  0  0
   -3.0620   13.6920   -6.0830 C   0  0  0  0  0  0  0  0  0  0  0  0
   -3.7890   15.9390   -3.7220 O   0  0  0  0  0  0  0  0  0  0  0  0
   -3.9680   15.2370   -1.5090 C   0  0  0  0  0  0  0  0  0  0  0  0
   -5.3680   15.2130   -1.5270 C   0  0  0  0  0  0  0  0  0  0  0  0
   -3.3100   15.0950   -0.2780 C   0  0  0  0  0  0  0  0  0  0  0  0
   -6.0630   15.3420   -2.6960 O   0  0  0  0  0  0  0  0  0  0  0  0
   -6.1020   15.0580   -0.3580 C   0  0  0  0  0  0  0  0  0  0  0  0
   -4.0630   14.9390    0.9040 C   0  0  0  0  0  0  0  0  0  0  0  0
   -5.4640   14.9230    0.8650 C   0  0  0  0  0  0  0  0  0  0  0  0
   -6.2420   14.7770    2.0150 N   0  0  0  0  0  0  0  0  0  0  0  0
  1  2  1  0
  2  3  2  0
  2  4  1  0
  4  5  1  0
  5  6  2  0
  5  7  1  0
  6  8  1  0
  7  9  1  0
  6 10  1  0
  7 11  2  0
  9 12  1  0
 10 13  2  0
 11 13  1  0
 12 14  2  0
 12 15  1  0
 15 16  2  0
 15 17  1  0
 16 18  1  0
 16 19  1  0
 17 20  2  0
 19 21  2  0
 20 21  1  0
 21 22  1  0
M  END
