mac-x0568-mac-x0527
     RDKit          3D

 19 20  0  0  0  0  0  0  0  0999 V2000
   -8.6530   14.8050    1.1620 C   0  0  0  0  0  0  0  0  0  0  0  0
   -7.2630   14.7150    0.6070 C   0  0  0  0  0  0  0  0  0  0  0  0
   -6.1910   14.5830    1.4720 C   0  0  0  0  0  0  0  0  0  0  0  0
   -7.1090   14.7720   -0.7360 N   0  0  0  0  0  0  0  0  0  0  0  0
   -5.8480   14.6840   -1.2300 C   0  0  0  0  0  0  0  0  0  0  0  0
   -4.9090   14.4950    0.9420 C   0  0  0  0  0  0  0  0  0  0  0  0
   -4.7070   14.5390   -0.4410 C   0  0  0  0  0  0  0  0  0  0  0  0
   -3.3140   14.4120   -1.0130 C   0  0  1  0  0  0  0  0  0  0  0  0
   -3.0700   14.9550   -2.4460 C   0  0  0  0  0  0  0  0  0  0  0  0
   -2.2950   14.9450   -0.0780 N   0  0  0  0  0  0  0  0  0  0  0  0
   -3.9200   15.4400   -3.1850 O   0  0  0  0  0  0  0  0  0  0  0  0
   -1.7360   14.8060   -2.7930 N   0  0  0  0  0  0  0  0  0  0  0  0
   -1.2580   14.8250   -4.1530 C   0  0  0  0  0  0  0  0  0  0  0  0
   -1.0800   13.4210   -4.6940 C   0  0  0  0  0  0  0  0  0  0  0  0
   -1.9610   12.3890   -4.3350 C   0  0  0  0  0  0  0  0  0  0  0  0
   -0.0210   13.1310   -5.5750 C   0  0  0  0  0  0  0  0  0  0  0  0
   -1.7880   11.0990   -4.8450 C   0  0  0  0  0  0  0  0  0  0  0  0
    0.1470   11.8430   -6.0820 C   0  0  0  0  0  0  0  0  0  0  0  0
   -0.7350   10.8270   -5.7180 C   0  0  0  0  0  0  0  0  0  0  0  0
  1  2  1  0
  2  3  2  0
  2  4  1  0
  4  5  2  0
  3  6  1  0
  5  7  1  0
  6  7  2  0
  7  8  1  0
  8  9  1  0
  8 10  1  1
  9 11  2  0
  9 12  1  0
 12 13  1  0
 13 14  1  0
 14 15  2  0
 14 16  1  0
 15 17  1  0
 16 18  2  0
 17 19  2  0
 18 19  1  0
M  END
