mac-x0361-mac-x0415
     RDKit          3D

 24 26  0  0  0  0  0  0  0  0999 V2000
   -5.9330   14.8990    1.5450 N   0  0  0  0  0  0  0  0  0  0  0  0
   -6.2820   14.9080    0.2210 C   0  0  0  0  0  0  0  0  0  0  0  0
   -7.4560   15.0390   -0.1120 O   0  0  0  0  0  0  0  0  0  0  0  0
   -5.2040   14.7180   -0.7880 C   0  0  0  0  0  0  0  0  0  0  0  0
   -3.8700   14.4740   -0.4310 C   0  0  0  0  0  0  0  0  0  0  0  0
   -5.5470   14.7720   -2.1400 C   0  0  0  0  0  0  0  0  0  0  0  0
   -2.8990   14.2610   -1.4270 C   0  0  0  0  0  0  0  0  0  0  0  0
   -4.5800   14.5570   -3.1300 C   0  0  0  0  0  0  0  0  0  0  0  0
   -3.2470   14.2860   -2.7870 C   0  0  0  0  0  0  0  0  0  0  0  0
   -2.3660   14.0430   -3.8610 O   0  0  0  0  0  0  0  0  0  0  0  0
   -1.7870   15.0750   -4.5400 C   0  0  0  0  0  0  0  0  0  0  0  0
   -0.3980   15.3350   -4.3790 C   0  0  0  0  0  0  0  0  0  0  0  0
   -2.4460   15.8530   -5.3980 C   0  0  0  0  0  0  0  0  0  0  0  0
   -4.1910   15.4400   -5.8830 Br  0  0  0  0  0  0  0  0  0  0  0  0
    0.6480   14.4920   -4.2930 C   0  0  0  0  0  0  0  0  0  0  0  0
   -0.0040   16.7590   -4.3580 C   0  0  1  0  0  0  0  0  0  0  0  0
   -1.7960   17.0310   -5.9960 C   0  0  0  0  0  0  0  0  0  0  0  0
    0.8350   13.0140   -4.3030 C   0  0  0  0  0  0  0  0  0  0  0  0
    1.7250   15.4560   -4.2170 C   0  0  0  0  0  0  0  0  0  0  0  0
    1.4200   16.7150   -4.2740 N   0  0  0  0  0  0  0  0  0  0  0  0
   -0.6150   17.4790   -5.5090 C   0  0  0  0  0  0  0  0  0  0  0  0
    0.6920   12.3530   -2.9400 C   0  0  0  0  0  0  0  0  0  0  0  0
   -0.0610   11.2290   -2.9790 O   0  0  0  0  0  0  0  0  0  0  0  0
    1.1820   12.7560   -1.9030 O   0  0  0  0  0  0  0  0  0  0  0  0
  1  2  1  0
  2  3  2  0
  2  4  1  0
  4  5  2  0
  4  6  1  0
  5  7  1  0
  6  8  2  0
  7  9  2  0
  8  9  1  0
  9 10  1  0
 10 11  1  0
 11 12  1  0
 11 13  2  0
 13 14  1  0
 12 15  2  0
 12 16  1  0
 13 17  1  0
 15 18  1  0
 15 19  1  0
 16 20  1  0
 19 20  2  0
 16 21  1  6
 17 21  2  0
 18 22  1  0
 22 23  1  0
 22 24  2  0
M  END
