mac-x0584-diamond-x0662_0_A
     RDKit          3D

 37 42  0  0  0  0  0  0  0  0999 V2000
    5.3620    9.6280  -15.1100 C   0  0  0  0  0  0  0  0  0  0  0  0
    4.3170   10.0350  -14.1930 N   0  0  0  0  0  0  0  0  0  0  0  0
    3.6180   11.2080  -14.1890 C   0  0  0  0  0  0  0  0  0  0  0  0
    3.9570    9.1980  -13.2130 N   0  0  0  0  0  0  0  0  0  0  0  0
    2.7430   11.1270  -13.1290 C   0  0  0  0  0  0  0  0  0  0  0  0
    2.9890    9.8520  -12.5420 C   0  0  0  0  0  0  0  0  0  0  0  0
    2.3490    9.2220  -11.3650 C   0  0  0  0  0  0  0  0  0  0  0  0
    2.5380    8.0370  -11.1170 O   0  0  0  0  0  0  0  0  0  0  0  0
    1.5790   10.0850  -10.6230 N   0  0  0  0  0  0  0  0  0  0  0  0
    0.7740    9.7920   -9.5100 C   0  0  0  0  0  0  0  0  0  0  0  0
    0.0810    8.6050   -9.3310 C   0  0  0  0  0  0  0  0  0  0  0  0
    0.6670   10.7720   -8.5340 C   0  0  0  0  0  0  0  0  0  0  0  0
   -0.7000    8.4170   -8.1860 C   0  0  0  0  0  0  0  0  0  0  0  0
   -0.1120   10.6180   -7.3850 C   0  0  0  0  0  0  0  0  0  0  0  0
   -0.1700   11.7810   -6.4220 C   0  0  0  0  0  0  0  0  0  0  0  0
   -0.7980    9.4180   -7.2150 C   0  0  0  0  0  0  0  0  0  0  0  0
   -1.3960   12.1760   -6.2810 N   0  0  0  0  0  0  0  0  0  0  0  0
    0.9500   12.1150   -5.9980 O   0  0  0  0  0  0  0  0  0  0  0  0
   -1.9440   13.2840   -5.4900 C   0  0  0  0  0  0  0  0  0  0  0  0
   -0.9040   14.2130   -4.8470 C   0  0  2  0  0  0  0  0  0  0  0  0
   -0.7990   13.9290   -3.3230 C   0  0  1  0  0  0  0  0  0  0  0  0
   -1.4410   15.6530   -4.8780 C   0  0  0  0  0  0  0  0  0  0  0  0
    0.4430   13.1910   -2.8280 C   0  0  0  0  0  0  0  0  0  0  0  0
   -1.1670   15.1520   -2.6190 N   0  0  0  0  0  0  0  0  0  0  0  0
   -2.1090   15.8170   -3.5190 C   0  0  0  0  0  0  0  0  0  0  0  0
    1.3500   12.5050   -3.8890 C   0  0  0  0  0  0  0  0  0  0  0  0
    0.1380   11.7230   -2.4080 C   0  0  0  0  0  0  0  0  0  0  0  0
   -1.3450   15.1190   -1.2580 C   0  0  0  0  0  0  0  0  0  0  0  0
    0.2370   11.4320   -3.9030 C   0  0  0  0  0  0  0  0  0  0  0  0
   -0.2650   14.8980   -0.4400 N   0  0  0  0  0  0  0  0  0  0  0  0
   -2.5190   15.2650   -0.6310 C   0  0  0  0  0  0  0  0  0  0  0  0
   -0.3960   14.8120    0.9170 C   0  0  0  0  0  0  0  0  0  0  0  0
   -2.5790   15.1710    0.8470 C   0  0  0  0  0  0  0  0  0  0  0  0
   -3.8710   15.5000   -1.0000 C   0  0  0  0  0  0  0  0  0  0  0  0
   -1.4770   14.9190    1.6070 N   0  0  0  0  0  0  0  0  0  0  0  0
   -3.7800   15.3500    1.3070 N   0  0  0  0  0  0  0  0  0  0  0  0
   -4.5400   15.5400    0.1640 C   0  0  0  0  0  0  0  0  0  0  0  0
  1  2  1  0
  2  3  1  0
  2  4  1  0
  3  5  2  0
  4  6  2  0
  5  6  1  0
  6  7  1  0
  7  8  2  0
  7  9  1  0
  9 10  1  0
 10 11  2  0
 10 12  1  0
 11 13  1  0
 12 14  2  0
 14 15  1  0
 13 16  2  0
 14 16  1  0
 15 17  2  3
 15 18  1  0
 17 19  1  0
 20 19  1  6
 20 21  1  0
 20 22  1  0
 21 23  1  6
 21 24  1  0
 22 25  1  0
 24 25  1  0
 23 26  1  0
 23 27  1  0
 24 28  1  0
 26 29  1  0
 27 29  1  0
 28 30  1  0
 28 31  2  0
 30 32  1  0
 31 33  1  0
 31 34  1  0
 32 35  2  0
 33 35  1  0
 33 36  2  0
 34 37  2  0
 36 37  1  0
M  CHG  1  18  -1
M  END
