mac-x0231-mac-x0142
     RDKit          3D

 25 29  0  0  0  0  0  0  0  0999 V2000
    2.1870   10.9730   -3.7440 O   0  0  0  0  0  0  0  0  0  0  0  0
    2.1790   12.2860   -3.5380 C   0  0  0  0  0  0  0  0  0  0  0  0
    2.0510   12.7050   -2.4000 O   0  0  0  0  0  0  0  0  0  0  0  0
    2.2950   13.0950   -4.7990 C   0  0  0  0  0  0  0  0  0  0  0  0
    1.5110   14.3450   -4.5370 C   0  0  0  0  0  0  0  0  0  0  0  0
    0.1360   14.1600   -4.0860 C   0  0  0  0  0  0  0  0  0  0  0  0
    2.1150   15.4550   -4.5980 N   0  0  0  0  0  0  0  0  0  0  0  0
   -0.4780   15.2420   -3.5780 C   0  0  0  0  0  0  0  0  0  0  0  0
    1.4450   16.5520   -4.2630 N   0  0  0  0  0  0  0  0  0  0  0  0
   -0.5380   12.8520   -4.1240 C   0  0  0  0  0  0  0  0  0  0  0  0
    0.1840   16.5850   -3.7450 C   0  0  0  0  0  0  0  0  0  0  0  0
   -1.8000   14.8480   -2.8390 C   0  0  1  0  0  0  0  0  0  0  0  0
   -1.9900   12.9970   -4.4100 C   0  0  0  0  0  0  0  0  0  0  0  0
    0.1460   11.6250   -4.6220 C   0  0  0  0  0  0  0  0  0  0  0  0
   -0.0560   11.7730   -3.1450 C   0  0  0  0  0  0  0  0  0  0  0  0
   -0.3290   17.6660   -3.5340 O   0  0  0  0  0  0  0  0  0  0  0  0
   -2.6390   13.9850   -3.7940 C   0  0  0  0  0  0  0  0  0  0  0  0
   -1.1540   13.8400   -1.9190 N   0  0  0  0  0  0  0  0  0  0  0  0
   -2.5840   15.7500   -1.8120 C   0  0  2  0  0  0  0  0  0  0  0  0
   -0.3420   14.3600   -0.8270 C   0  0  0  0  0  0  0  0  0  0  0  0
   -2.1600   15.6660   -0.2590 C   0  0  2  0  0  0  0  0  0  0  0  0
   -4.0840   15.5100   -1.6840 C   0  0  0  0  0  0  0  0  0  0  0  0
   -1.2760   14.6270    0.2040 N   0  0  0  0  0  0  0  0  0  0  0  0
   -3.4380   15.7300    0.4520 N   0  0  0  0  0  0  0  0  0  0  0  0
   -4.4720   15.5170   -0.4050 C   0  0  0  0  0  0  0  0  0  0  0  0
  1  2  1  0
  2  3  2  0
  2  4  1  0
  4  5  1  0
  5  6  1  0
  5  7  2  0
  6  8  2  0
  7  9  1  0
  6 10  1  0
  8 11  1  0
  9 11  1  0
  8 12  1  0
 10 13  1  0
 10 14  1  0
 10 15  1  0
 14 15  1  0
 11 16  2  0
 12 17  1  6
 13 17  2  0
 12 18  1  0
 12 19  1  0
 18 20  1  0
 19 21  1  0
 19 22  1  1
 20 23  1  0
 21 23  1  6
 21 24  1  0
 22 25  2  0
 24 25  1  0
M  END
