mac-x0271-diamond-x0685_1_A
     RDKit          3D

 28 30  0  0  0  0  0  0  0  0999 V2000
   -3.6470   15.4400   -2.9380 O   0  0  0  0  0  0  0  0  0  0  0  0
   -4.3220   15.2850   -1.7570 C   0  0  0  0  0  0  0  0  0  0  0  0
   -3.6000   15.2860   -0.5510 C   0  0  0  0  0  0  0  0  0  0  0  0
   -5.7130   15.1290   -1.7690 C   0  0  0  0  0  0  0  0  0  0  0  0
   -2.0970   15.4580   -0.5000 C   0  0  0  0  0  0  0  0  0  0  0  0
   -6.3720   14.9690   -0.5540 C   0  0  0  0  0  0  0  0  0  0  0  0
   -4.2970   15.1210    0.6570 C   0  0  0  0  0  0  0  0  0  0  0  0
   -1.3210   14.6750   -1.5520 C   0  0  0  0  0  0  0  0  0  0  0  0
   -5.6840   14.9600    0.6550 C   0  0  0  0  0  0  0  0  0  0  0  0
   -7.7760   14.8140   -0.5750 O   0  0  0  0  0  0  0  0  0  0  0  0
   -0.9520   13.2720   -1.0910 C   0  0  0  0  0  0  0  0  0  0  0  0
   -6.4320   14.7880    1.8860 C   0  0  0  0  0  0  0  0  0  0  0  0
   -8.5220   14.8500    0.6030 C   0  0  0  0  0  0  0  0  0  0  0  0
   -9.7390   14.9770    0.6140 O   0  0  0  0  0  0  0  0  0  0  0  0
    0.3940   13.0280   -1.4630 O   0  0  0  0  0  0  0  0  0  0  0  0
   -7.7660   14.7330    1.8600 C   0  0  0  0  0  0  0  0  0  0  0  0
    0.7180   12.0840   -2.7190 S   0  0  0  0  0  0  0  0  0  0  0  0
   -0.1280   12.6850   -4.1760 C   0  0  0  0  0  0  0  0  0  0  0  0
    2.2650   12.2500   -3.0990 O   0  0  0  0  0  0  0  0  0  0  0  0
    0.3470   10.5240   -2.5040 O   0  0  0  0  0  0  0  0  0  0  0  0
   -1.4660   12.0150   -4.4760 C   0  0  0  0  0  0  0  0  0  0  0  0
   -1.4370   10.6190   -4.9260 N   0  0  0  0  0  0  0  0  0  0  0  0
   -0.7690   10.3560   -6.2010 C   0  0  0  0  0  0  0  0  0  0  0  0
   -0.5800    8.8530   -6.4670 C   0  0  0  0  0  0  0  0  0  0  0  0
   -1.5880   10.9890   -7.3390 C   0  0  0  0  0  0  0  0  0  0  0  0
    0.0790    8.5720   -7.8160 C   0  0  0  0  0  0  0  0  0  0  0  0
   -0.9900   10.6790   -8.7180 C   0  0  0  0  0  0  0  0  0  0  0  0
   -0.7140    9.1930   -8.9620 C   0  0  0  0  0  0  0  0  0  0  0  0
  1  2  1  0
  2  3  2  0
  2  4  1  0
  3  5  1  0
  4  6  2  0
  3  7  1  0
  5  8  1  0
  6  9  1  0
  7  9  2  0
  6 10  1  0
  8 11  1  0
  9 12  1  0
 10 13  1  0
 13 14  2  0
 11 15  1  0
 12 16  2  0
 13 16  1  0
 17 15  1  0
 17 18  1  0
 17 19  1  0
 17 20  1  0
 18 21  1  0
 21 22  1  0
 22 23  1  0
 23 24  1  0
 23 25  1  0
 24 26  1  0
 25 27  1  0
 26 28  1  0
 27 28  1  0
M  END
