mac-x0358-mac-x0333
     RDKit          3D

 21 23  0  0  0  0  0  0  0  0999 V2000
    1.6490   12.8580   -2.1290 O   0  0  0  0  0  0  0  0  0  0  0  0
    0.9870   12.1490   -3.0660 C   0  0  0  0  0  0  0  0  0  0  0  0
    0.5330   11.0390   -2.8280 O   0  0  0  0  0  0  0  0  0  0  0  0
    0.8570   12.8690   -4.3890 C   0  0  0  0  0  0  0  0  0  0  0  0
   -0.5740   13.2570   -4.6310 C   0  0  0  0  0  0  0  0  0  0  0  0
   -1.4070   12.6030   -5.5350 C   0  0  0  0  0  0  0  0  0  0  0  0
   -1.1020   14.3150   -3.8950 C   0  0  0  0  0  0  0  0  0  0  0  0
   -0.9620   11.5470   -6.2690 O   0  0  0  0  0  0  0  0  0  0  0  0
   -2.7340   12.9930   -5.7230 C   0  0  0  0  0  0  0  0  0  0  0  0
   -2.4280   14.6960   -4.0610 C   0  0  0  0  0  0  0  0  0  0  0  0
   -2.9620   15.7060   -3.3090 O   0  0  0  0  0  0  0  0  0  0  0  0
   -3.2500   14.0500   -4.9800 C   0  0  0  0  0  0  0  0  0  0  0  0
   -3.6410   15.4020   -2.1130 C   0  0  0  0  0  0  0  0  0  0  0  0
   -5.0270   15.3440   -2.1990 C   0  0  0  0  0  0  0  0  0  0  0  0
   -3.0080   15.1700   -0.8620 C   0  0  0  0  0  0  0  0  0  0  0  0
   -5.7430   15.0840   -1.0580 C   0  0  0  0  0  0  0  0  0  0  0  0
   -3.7680   14.9090    0.2900 C   0  0  0  0  0  0  0  0  0  0  0  0
   -5.1350   14.8790    0.1530 C   0  0  0  0  0  0  0  0  0  0  0  0
   -7.0980   14.9990   -0.9760 O   0  0  0  0  0  0  0  0  0  0  0  0
   -6.0450   14.6530    1.1370 O   0  0  0  0  0  0  0  0  0  0  0  0
   -7.2450   14.4960    0.3630 C   0  0  0  0  0  0  0  0  0  0  0  0
  1  2  1  0
  2  3  2  0
  2  4  1  0
  4  5  1  0
  5  6  2  0
  5  7  1  0
  6  8  1  0
  6  9  1  0
  7 10  2  0
 10 11  1  0
  9 12  2  0
 10 12  1  0
 11 13  1  0
 13 14  2  0
 13 15  1  0
 14 16  1  0
 15 17  2  0
 16 18  2  0
 17 18  1  0
 16 19  1  0
 18 20  1  0
 19 21  1  0
 20 21  1  0
M  END
