mac-x0345-mac-x0411
     RDKit          3D

 25 26  0  0  0  0  0  0  0  0999 V2000
   -7.3530   14.5130    0.8340 C   0  0  0  0  0  0  0  0  0  0  0  0
   -6.2630   14.8230   -0.1530 C   0  0  0  0  0  0  0  0  0  0  0  0
   -6.6100   14.7150   -1.4550 N   0  0  0  0  0  0  0  0  0  0  0  0
   -4.9760   15.1950    0.2160 C   0  0  0  0  0  0  0  0  0  0  0  0
   -4.3760   15.3770    1.9680 Br  0  0  0  0  0  0  0  0  0  0  0  0
   -4.0430   15.4560   -0.7570 C   0  0  0  0  0  0  0  0  0  0  0  0
   -5.6970   14.9680   -2.4070 C   0  0  0  0  0  0  0  0  0  0  0  0
   -6.0750   14.8430   -3.7540 N   0  0  0  0  0  0  0  0  0  0  0  0
   -4.4000   15.3460   -2.0830 C   0  0  0  0  0  0  0  0  0  0  0  0
   -5.1160   14.4690   -4.8120 C   0  0  0  0  0  0  0  0  0  0  0  0
   -3.6510   14.4020   -4.3700 C   0  0  0  0  0  0  0  0  0  0  0  0
   -3.1260   12.9840   -4.0930 C   0  0  0  0  0  0  0  0  0  0  0  0
   -1.7620   12.6180   -4.7120 C   0  0  0  0  0  0  0  0  0  0  0  0
   -1.6710   11.2750   -5.4280 C   0  0  0  0  0  0  0  0  0  0  0  0
   -0.5180   10.7850   -6.1130 C   0  0  0  0  0  0  0  0  0  0  0  0
   -2.8190   10.4530   -5.4160 C   0  0  0  0  0  0  0  0  0  0  0  0
    0.6650   11.4990   -6.1950 O   0  0  0  0  0  0  0  0  0  0  0  0
   -2.8430    9.2090   -6.0440 C   0  0  0  0  0  0  0  0  0  0  0  0
   -0.5650    9.5280   -6.7460 C   0  0  0  0  0  0  0  0  0  0  0  0
    0.7870    8.8830   -7.6050 Cl  0  0  0  0  0  0  0  0  0  0  0  0
    0.9720   12.4260   -5.1450 C   0  0  0  0  0  0  0  0  0  0  0  0
   -1.7180    8.7470   -6.7090 C   0  0  0  0  0  0  0  0  0  0  0  0
    1.0680   11.7480   -3.7850 C   0  0  0  0  0  0  0  0  0  0  0  0
    1.3750   12.6170   -2.7960 O   0  0  0  0  0  0  0  0  0  0  0  0
    0.9020   10.5730   -3.5170 O   0  0  0  0  0  0  0  0  0  0  0  0
  1  2  1  0
  2  3  2  0
  2  4  1  0
  4  5  1  0
  4  6  2  0
  3  7  1  0
  7  8  1  0
  6  9  1  0
  7  9  2  0
  8 10  1  0
 10 11  1  0
 11 12  1  0
 12 13  1  0
 13 14  1  0
 14 15  2  0
 14 16  1  0
 15 17  1  0
 16 18  2  0
 15 19  1  0
 19 20  1  0
 17 21  1  0
 18 22  1  0
 19 22  2  0
 21 23  1  0
 23 24  1  0
 23 25  2  0
M  END
