mac-x0159-mac-x0131
     RDKit          3D

 24 27  0  0  0  0  0  0  0  0999 V2000
   -4.1600   15.5370    1.2160 N   0  0  0  0  0  0  0  0  0  0  0  0
   -3.5820   14.7710    0.1130 C   0  0  2  0  0  0  0  0  0  0  0  0
   -2.0850   14.3710    0.2790 C   0  0  1  0  0  0  0  0  0  0  0  0
   -3.9170   15.4390   -1.1350 N   0  0  0  0  0  0  0  0  0  0  0  0
   -5.3720   15.5880   -1.2460 C   0  0  0  0  0  0  0  0  0  0  0  0
   -3.2830   14.7390   -2.2630 C   0  0  1  0  0  0  0  0  0  0  0  0
   -1.2710   14.2820   -1.0310 C   0  0  1  0  0  0  0  0  0  0  0  0
   -1.3090   15.2280    1.1840 N   0  0  0  0  0  0  0  0  0  0  0  0
   -3.8780   15.1400   -3.6300 C   0  0  0  0  0  0  0  0  0  0  0  0
   -1.8340   14.9700   -2.1890 N   0  0  0  0  0  0  0  0  0  0  0  0
    0.0270   14.8280   -0.6500 N   0  0  0  0  0  0  0  0  0  0  0  0
    0.0360   14.8900    0.7830 C   0  0  0  0  0  0  0  0  0  0  0  0
   -1.2130   14.6690   -3.4940 C   0  0  1  0  0  0  0  0  0  0  0  0
   -0.5430   15.8650   -4.1840 C   0  0  0  0  0  0  0  0  0  0  0  0
   -0.7530   13.2580   -3.6920 C   0  0  0  0  0  0  0  0  0  0  0  0
    0.7800   16.2770   -4.1520 C   0  0  0  0  0  0  0  0  0  0  0  0
   -1.3680   16.6870   -4.9650 N   0  0  0  0  0  0  0  0  0  0  0  0
    0.4390   12.5620   -3.6740 C   0  0  0  0  0  0  0  0  0  0  0  0
   -1.7740   12.3920   -3.9540 O   0  0  0  0  0  0  0  0  0  0  0  0
   -0.6940   17.6720   -5.4940 C   0  0  0  0  0  0  0  0  0  0  0  0
    0.9610   17.6980   -5.1010 S   0  0  0  0  0  0  0  0  0  0  0  0
   -1.2670   11.1680   -4.0950 C   0  0  0  0  0  0  0  0  0  0  0  0
    0.0760   11.2120   -3.9310 C   0  0  0  0  0  0  0  0  0  0  0  0
   -1.2740   18.7200   -6.3770 C   0  0  0  0  0  0  0  0  0  0  0  0
  2  1  1  1
  2  3  1  0
  2  4  1  0
  4  5  1  0
  4  6  1  0
  3  7  1  0
  3  8  1  1
  6  9  1  6
  6 10  1  0
  7 10  1  0
  7 11  1  1
  8 12  1  0
 11 12  1  0
 10 13  1  0
 13 14  1  1
 13 15  1  0
 14 16  2  0
 14 17  1  0
 15 18  2  0
 15 19  1  0
 17 20  2  0
 16 21  1  0
 20 21  1  0
 19 22  1  0
 18 23  1  0
 22 23  2  0
 20 24  1  0
M  END
