mac-x0301-mac-x0472
     RDKit          3D

 26 29  0  0  0  0  0  0  0  0999 V2000
   -0.3380   14.8700   -3.4790 O   0  0  0  0  0  0  0  0  0  0  0  0
   -1.3830   14.2250   -2.8380 C   0  0  0  0  0  0  0  0  0  0  0  0
   -1.9210   13.1480   -3.1980 N   0  0  0  0  0  0  0  0  0  0  0  0
   -2.0240   14.7230   -1.6330 C   0  0  0  0  0  0  0  0  0  0  0  0
   -3.1240   12.6530   -2.1930 S   0  0  0  0  0  0  0  0  0  0  0  0
   -1.4710   14.5310   -0.3820 C   0  0  0  0  0  0  0  0  0  0  0  0
   -3.2230   15.3880   -1.7510 C   0  0  0  0  0  0  0  0  0  0  0  0
   -4.0060   12.8670   -3.9980 O   0  0  0  0  0  0  0  0  0  0  0  0
   -4.3810   13.8030   -1.9400 N   0  0  0  0  0  0  0  0  0  0  0  0
   -2.1250   15.0150    0.7370 C   0  0  0  0  0  0  0  0  0  0  0  0
   -3.9080   15.8810   -0.6580 C   0  0  0  0  0  0  0  0  0  0  0  0
   -0.2970   13.8970    0.0520 O   0  0  0  0  0  0  0  0  0  0  0  0
   -3.9770   11.1110   -2.4360 C   0  0  0  0  0  0  0  0  0  0  0  0
   -3.3370   15.6860    0.5830 C   0  0  0  0  0  0  0  0  0  0  0  0
   -1.3480   14.6870    1.8400 O   0  0  0  0  0  0  0  0  0  0  0  0
   -0.0690   14.3180    1.3830 C   0  0  0  0  0  0  0  0  0  0  0  0
   -4.7140   14.0120   -0.5960 C   0  0  0  0  0  0  0  0  0  0  0  0
   -3.4290   10.0180   -2.9470 C   0  0  0  0  0  0  0  0  0  0  0  0
   -5.2710   11.2000   -2.0140 C   0  0  0  0  0  0  0  0  0  0  0  0
   -4.0470   13.6060    0.4760 N   0  0  0  0  0  0  0  0  0  0  0  0
   -6.0310   14.8320    0.1050 S   0  0  0  0  0  0  0  0  0  0  0  0
   -4.2400    8.8830   -3.0530 C   0  0  0  0  0  0  0  0  0  0  0  0
   -6.0780   10.0990   -2.1120 C   0  0  0  0  0  0  0  0  0  0  0  0
   -5.6030   14.5980    1.7390 C   0  0  0  0  0  0  0  0  0  0  0  0
   -4.4790   13.8930    1.6080 N   0  0  0  0  0  0  0  0  0  0  0  0
   -5.5520    8.9150   -2.6420 C   0  0  0  0  0  0  0  0  0  0  0  0
  1  2  1  0
  2  3  2  3
  2  4  1  0
  3  5  1  0
  4  6  1  0
  4  7  2  0
  5  8  2  0
  5  9  1  0
  6 10  2  0
  7 11  1  0
  6 12  1  0
  5 13  1  0
 10 14  1  0
 11 14  2  0
 10 15  1  0
 12 16  1  0
 15 16  1  0
  9 17  1  0
 13 18  2  0
 13 19  1  0
 17 20  2  0
 17 21  1  0
 18 22  1  0
 19 23  2  0
 21 24  1  0
 20 25  1  0
 24 25  2  0
 22 26  2  0
 23 26  1  0
M  END
