mac-x0346-mac-x0411
     RDKit          3D

 26 27  0  0  0  0  0  0  0  0999 V2000
   -7.4380   14.4040    1.2400 O   0  0  0  0  0  0  0  0  0  0  0  0
   -7.6120   14.8190   -0.1020 N   0  0  0  0  0  0  0  0  0  0  0  0
   -6.5240   14.9200   -0.9490 C   0  0  0  0  0  0  0  0  0  0  0  0
   -6.7130   14.9540   -2.1600 O   0  0  0  0  0  0  0  0  0  0  0  0
   -5.1180   14.9800   -0.4430 C   0  0  0  0  0  0  0  0  0  0  0  0
   -3.9770   14.8470   -1.2800 C   0  0  0  0  0  0  0  0  0  0  0  0
   -4.9460   15.1780    0.9420 C   0  0  0  0  0  0  0  0  0  0  0  0
   -4.1520   14.6560   -2.6410 O   0  0  0  0  0  0  0  0  0  0  0  0
   -2.7130   14.9170   -0.6870 C   0  0  0  0  0  0  0  0  0  0  0  0
   -3.6750   15.2440    1.4980 C   0  0  0  0  0  0  0  0  0  0  0  0
   -3.9890   13.3570   -3.2690 C   0  0  0  0  0  0  0  0  0  0  0  0
   -2.5630   15.1130    0.6900 C   0  0  0  0  0  0  0  0  0  0  0  0
   -2.5600   12.7670   -3.1970 C   0  0  0  0  0  0  0  0  0  0  0  0
   -1.7930   12.7140   -4.5530 C   0  0  0  0  0  0  0  0  0  0  0  0
   -1.7400   11.3700   -5.3050 C   0  0  0  0  0  0  0  0  0  0  0  0
   -0.6210   10.8800   -6.0660 C   0  0  0  0  0  0  0  0  0  0  0  0
   -2.8870   10.5480   -5.2530 C   0  0  0  0  0  0  0  0  0  0  0  0
    0.5670   11.5870   -6.1930 O   0  0  0  0  0  0  0  0  0  0  0  0
   -2.9510    9.3170   -5.9070 C   0  0  0  0  0  0  0  0  0  0  0  0
   -0.7160    9.6270   -6.7330 C   0  0  0  0  0  0  0  0  0  0  0  0
    0.5610    8.9580   -7.7000 Cl  0  0  0  0  0  0  0  0  0  0  0  0
    0.8980   12.5350   -5.1670 C   0  0  0  0  0  0  0  0  0  0  0  0
   -1.8700    8.8590   -6.6460 C   0  0  0  0  0  0  0  0  0  0  0  0
    0.8270   11.9400   -3.7660 C   0  0  0  0  0  0  0  0  0  0  0  0
    1.3630   12.7660   -2.8390 O   0  0  0  0  0  0  0  0  0  0  0  0
    0.3740   10.8630   -3.4160 O   0  0  0  0  0  0  0  0  0  0  0  0
  1  2  1  0
  2  3  1  0
  3  4  2  0
  3  5  1  0
  5  6  2  0
  5  7  1  0
  6  8  1  0
  6  9  1  0
  7 10  2  0
  8 11  1  0
  9 12  2  0
 10 12  1  0
 11 13  1  0
 13 14  1  0
 14 15  1  0
 15 16  2  0
 15 17  1  0
 16 18  1  0
 17 19  2  0
 16 20  1  0
 20 21  1  0
 18 22  1  0
 19 23  1  0
 20 23  2  0
 22 24  1  0
 24 25  1  0
 24 26  2  0
M  END
