mac-x0441-diamond-x0805_0_A
     RDKit          3D

 31 34  0  0  0  0  0  0  0  0999 V2000
    2.1200   11.9830   -3.4530 O   0  0  0  0  0  0  0  0  0  0  0  0
    0.7390   12.1760   -3.5490 C   0  0  0  0  0  0  0  0  0  0  0  0
    0.3170   12.3290   -2.1890 O   0  0  0  0  0  0  0  0  0  0  0  0
   -0.0830   11.0780   -4.1400 C   0  0  0  0  0  0  0  0  0  0  0  0
    0.4170   13.3560   -4.3890 C   0  0  2  0  0  0  0  0  0  0  0  0
   -0.1190   10.8090   -5.5700 N   0  0  0  0  0  0  0  0  0  0  0  0
    1.7010   13.8010   -5.0510 C   0  0  0  0  0  0  0  0  0  0  0  0
   -0.2080   14.4750   -3.5660 C   0  0  2  0  0  0  0  0  0  0  0  0
    0.8180   11.1110   -6.5590 N   0  0  0  0  0  0  0  0  0  0  0  0
   -1.1630   10.1660   -6.0350 C   0  0  0  0  0  0  0  0  0  0  0  0
   -1.5880   14.2460   -2.9500 C   0  0  0  0  0  0  0  0  0  0  0  0
    2.2280   14.8900   -4.3190 O   0  0  0  0  0  0  0  0  0  0  0  0
   -0.0650   15.7700   -4.3350 C   0  0  0  0  0  0  0  0  0  0  0  0
    0.2750   10.5280   -7.6860 C   0  0  0  0  0  0  0  0  0  0  0  0
   -0.9660    9.9540   -7.3590 C   0  0  0  0  0  0  0  0  0  0  0  0
   -2.3230    9.7460   -5.2190 C   0  0  0  0  0  0  0  0  0  0  0  0
   -2.6160   13.5050   -3.5670 C   0  0  0  0  0  0  0  0  0  0  0  0
   -1.8320   14.8020   -1.7050 C   0  0  0  0  0  0  0  0  0  0  0  0
    1.4030   16.0430   -4.5460 C   0  0  0  0  0  0  0  0  0  0  0  0
    0.8090   10.4100   -9.1140 C   0  0  0  0  0  0  0  0  0  0  0  0
   -1.9430    9.2240   -8.1910 C   0  0  0  0  0  0  0  0  0  0  0  0
   -3.4490    9.3220   -6.1580 C   0  0  0  0  0  0  0  0  0  0  0  0
   -3.0410   14.6700   -1.0520 C   0  0  0  0  0  0  0  0  0  0  0  0
   -3.8540   13.3500   -2.9160 C   0  0  0  0  0  0  0  0  0  0  0  0
    1.5460    9.2700   -9.2280 F   0  0  0  0  0  0  0  0  0  0  0  0
   -0.1720   10.2870  -10.0360 F   0  0  0  0  0  0  0  0  0  0  0  0
    1.5820   11.3720   -9.6040 F   0  0  0  0  0  0  0  0  0  0  0  0
   -3.2830   15.2320    0.1760 O   0  0  0  0  0  0  0  0  0  0  0  0
   -2.9080    8.4380   -7.2860 C   0  0  0  0  0  0  0  0  0  0  0  0
   -4.0640   13.9360   -1.6580 C   0  0  0  0  0  0  0  0  0  0  0  0
   -4.5960   15.1820    0.7200 C   0  0  0  0  0  0  0  0  0  0  0  0
  2  1  1  0
  2  3  1  0
  2  4  1  0
  5  2  1  1
  4  6  1  0
  5  7  1  0
  5  8  1  0
  6  9  1  0
  6 10  1  0
  8 11  1  6
  7 12  1  0
  8 13  1  0
  9 14  2  0
 10 15  2  0
 14 15  1  0
 10 16  1  0
 11 17  2  0
 11 18  1  0
 12 19  1  0
 13 19  1  0
 14 20  1  0
 15 21  1  0
 16 22  1  0
 18 23  2  0
 17 24  1  0
 20 25  1  0
 20 26  1  0
 20 27  1  0
 23 28  1  0
 21 29  1  0
 22 29  1  0
 23 30  1  0
 24 30  2  0
 28 31  1  0
M  END
