mac-x0139-diamond-x1012_0_A
     RDKit          3D

 25 27  0  0  0  0  0  0  0  0999 V2000
   -2.1800   15.4330   -2.9500 C   0  0  0  0  0  0  0  0  0  0  0  0
   -1.0040   15.5350   -2.0760 N   0  0  0  0  0  0  0  0  0  0  0  0
    0.2330   14.9440   -2.5960 C   0  0  0  0  0  0  0  0  0  0  0  0
   -1.2290   15.2820   -0.7520 C   0  0  0  0  0  0  0  0  0  0  0  0
    0.4410   13.5690   -1.9700 C   0  0  0  0  0  0  0  0  0  0  0  0
   -2.4740   15.3400   -0.2830 C   0  0  0  0  0  0  0  0  0  0  0  0
   -0.1400   14.9560    0.0470 N   0  0  0  0  0  0  0  0  0  0  0  0
    0.8250   12.5390   -2.9990 C   0  0  0  0  0  0  0  0  0  0  0  0
   -2.6800   15.0550    1.1350 C   0  0  0  0  0  0  0  0  0  0  0  0
   -0.3810   14.7040    1.2830 C   0  0  0  0  0  0  0  0  0  0  0  0
   -3.7760   15.6160   -0.7790 C   0  0  0  0  0  0  0  0  0  0  0  0
    2.2320   12.4490   -2.9500 O   0  0  0  0  0  0  0  0  0  0  0  0
    0.3430   11.2460   -2.6810 O   0  0  0  0  0  0  0  0  0  0  0  0
   -1.6000   14.7330    1.8700 N   0  0  0  0  0  0  0  0  0  0  0  0
   -3.9250   15.1660    1.4630 N   0  0  0  0  0  0  0  0  0  0  0  0
   -4.5690   15.4960    0.2840 C   0  0  0  0  0  0  0  0  0  0  0  0
    0.3090   13.0440   -4.3620 C   0  0  0  0  0  0  0  0  0  0  0  0
   -1.1820   13.4710   -4.2410 C   0  0  0  0  0  0  0  0  0  0  0  0
    1.1960   14.1460   -5.0100 C   0  0  0  0  0  0  0  0  0  0  0  0
   -1.6210   14.6540   -5.1080 C   0  0  0  0  0  0  0  0  0  0  0  0
    0.6970   15.6050   -4.9390 C   0  0  0  0  0  0  0  0  0  0  0  0
   -0.7510   15.8360   -5.0100 N   0  0  0  0  0  0  0  0  0  0  0  0
   -1.3130   17.0890   -4.8040 C   0  0  0  0  0  0  0  0  0  0  0  0
   -0.4490   18.1300   -4.7080 N   0  0  0  0  0  0  0  0  0  0  0  0
   -2.5110   17.3220   -4.7080 O   0  0  0  0  0  0  0  0  0  0  0  0
  1  2  1  0
  2  3  1  0
  2  4  1  0
  3  5  1  0
  4  6  2  0
  4  7  1  0
  5  8  1  0
  6  9  1  0
  7 10  2  0
  6 11  1  0
  8 12  1  0
  8 13  1  0
  9 14  1  0
 10 14  1  0
  9 15  2  0
 11 16  2  0
 15 16  1  0
  8 17  1  0
 17 18  1  0
 17 19  1  0
 18 20  1  0
 19 21  1  0
 20 22  1  0
 21 22  1  0
 22 23  1  0
 23 24  1  0
 23 25  2  0
M  END
