mac-x0305-diamond-x1015_0_A
     RDKit          3D

 23 25  0  0  0  0  0  0  0  0999 V2000
    0.7830   14.9200   -0.8290 O   0  0  0  0  0  0  0  0  0  0  0  0
   -0.3410   14.0500   -0.8370 C   0  0  1  0  0  0  0  0  0  0  0  0
   -1.7220   14.6280   -0.6200 C   0  0  0  0  0  0  0  0  0  0  0  0
   -0.3110   13.1050   -2.0120 C   0  0  1  0  0  0  0  0  0  0  0  0
   -2.1560   14.9330    0.6680 C   0  0  0  0  0  0  0  0  0  0  0  0
   -2.5060   14.8190   -1.7210 N   0  0  0  0  0  0  0  0  0  0  0  0
   -0.1460   13.4550   -3.5160 C   0  0  2  0  0  0  0  0  0  0  0  0
    0.7640   12.2130   -1.8980 N   0  0  0  0  0  0  0  0  0  0  0  0
   -1.3180   14.7190    1.7340 O   0  0  0  0  0  0  0  0  0  0  0  0
   -3.4360   15.4530    0.8420 C   0  0  0  0  0  0  0  0  0  0  0  0
   -3.7430   15.3250   -1.5260 C   0  0  0  0  0  0  0  0  0  0  0  0
   -1.3830   14.0750   -4.1910 C   0  0  0  0  0  0  0  0  0  0  0  0
    0.1170   12.0550   -3.9750 N   0  0  0  0  0  0  0  0  0  0  0  0
    0.4090   11.3020   -2.8190 C   0  0  0  0  0  0  0  0  0  0  0  0
   -4.2420   15.6510   -0.2780 C   0  0  0  0  0  0  0  0  0  0  0  0
    0.3700   10.1120   -2.5770 O   0  0  0  0  0  0  0  0  0  0  0  0
   -0.3730   11.3980   -5.1220 C   0  0  0  0  0  0  0  0  0  0  0  0
    0.1260   11.6510   -6.4080 C   0  0  0  0  0  0  0  0  0  0  0  0
   -1.3850   10.4360   -4.9870 C   0  0  0  0  0  0  0  0  0  0  0  0
   -0.3720   10.9560   -7.5160 C   0  0  0  0  0  0  0  0  0  0  0  0
   -1.8850    9.7410   -6.0900 C   0  0  0  0  0  0  0  0  0  0  0  0
   -1.3740   10.0020   -7.3500 C   0  0  0  0  0  0  0  0  0  0  0  0
   -1.9830    9.1410   -8.7040 Cl  0  0  0  0  0  0  0  0  0  0  0  0
  2  1  1  6
  2  3  1  0
  2  4  1  0
  3  5  2  0
  3  6  1  0
  4  7  1  0
  4  8  1  1
  5  9  1  0
  5 10  1  0
  6 11  2  0
  7 12  1  6
  7 13  1  0
  8 14  1  0
 13 14  1  0
 10 15  2  0
 11 15  1  0
 14 16  2  0
 13 17  1  0
 17 18  2  0
 17 19  1  0
 18 20  1  0
 19 21  2  0
 20 22  2  0
 21 22  1  0
 22 23  1  0
M  END
