mac-x0441-mac-x0137
     RDKit          3D

 33 37  0  0  0  0  0  0  0  0999 V2000
    0.5360   10.5810   -2.9310 O   0  0  0  0  0  0  0  0  0  0  0  0
    0.8480   11.7200   -3.5750 C   0  0  0  0  0  0  0  0  0  0  0  0
    1.8510   12.3310   -3.2470 O   0  0  0  0  0  0  0  0  0  0  0  0
   -0.1520   12.0800   -4.6400 C   0  0  2  0  0  0  0  0  0  0  0  0
   -0.1390   11.3200   -5.8630 N   0  0  0  0  0  0  0  0  0  0  0  0
   -0.2380   13.5390   -4.9420 C   0  0  1  0  0  0  0  0  0  0  0  0
    0.7560   11.5090   -6.8850 N   0  0  0  0  0  0  0  0  0  0  0  0
   -1.0280   10.3680   -6.1050 C   0  0  0  0  0  0  0  0  0  0  0  0
   -1.6300   14.1180   -4.6270 C   0  0  1  0  0  0  0  0  0  0  0  0
    0.8560   14.2500   -4.1340 C   0  0  0  0  0  0  0  0  0  0  0  0
   -2.4950   13.0970   -4.3070 F   0  0  0  0  0  0  0  0  0  0  0  0
    0.3550   10.5910   -7.8210 C   0  0  0  0  0  0  0  0  0  0  0  0
   -0.7540    9.8720   -7.3380 C   0  0  0  0  0  0  0  0  0  0  0  0
   -2.1180    9.9360   -5.2050 C   0  0  0  0  0  0  0  0  0  0  0  0
   -1.5560   15.0440   -3.4330 C   0  0  0  0  0  0  0  0  0  0  0  0
    0.6270   14.2130   -2.6280 C   0  0  0  0  0  0  0  0  0  0  0  0
    0.9360   10.3120   -9.1920 C   0  0  0  0  0  0  0  0  0  0  0  0
   -1.5460    8.7820   -7.9600 C   0  0  0  0  0  0  0  0  0  0  0  0
   -3.1940    9.2710   -6.0630 C   0  0  0  0  0  0  0  0  0  0  0  0
   -0.7980   14.3770   -2.3530 N   0  0  0  0  0  0  0  0  0  0  0  0
    1.6920    9.1830   -9.2030 F   0  0  0  0  0  0  0  0  0  0  0  0
   -0.0380   10.0880  -10.1050 F   0  0  0  0  0  0  0  0  0  0  0  0
    1.6530   11.2970   -9.7490 F   0  0  0  0  0  0  0  0  0  0  0  0
   -2.5710    8.1990   -6.9690 C   0  0  0  0  0  0  0  0  0  0  0  0
   -1.1760   14.5250   -1.0370 C   0  0  0  0  0  0  0  0  0  0  0  0
   -0.2100   14.3140   -0.0840 N   0  0  0  0  0  0  0  0  0  0  0  0
   -2.3900   14.8700   -0.5920 C   0  0  0  0  0  0  0  0  0  0  0  0
   -0.5020   14.3370    1.2450 C   0  0  0  0  0  0  0  0  0  0  0  0
   -2.6070   14.9740    0.8630 C   0  0  0  0  0  0  0  0  0  0  0  0
   -3.6580   15.2170   -1.1460 C   0  0  0  0  0  0  0  0  0  0  0  0
   -1.6380   14.6410    1.7620 N   0  0  0  0  0  0  0  0  0  0  0  0
   -3.7990   15.4080    1.1470 N   0  0  0  0  0  0  0  0  0  0  0  0
   -4.4160   15.5380   -0.0890 C   0  0  0  0  0  0  0  0  0  0  0  0
  1  2  1  0
  2  3  2  0
  4  2  1  6
  4  5  1  0
  4  6  1  0
  5  7  1  0
  5  8  1  0
  6  9  1  0
  6 10  1  1
  9 11  1  1
  7 12  2  0
  8 13  2  0
 12 13  1  0
  8 14  1  0
  9 15  1  0
 10 16  1  0
 12 17  1  0
 13 18  1  0
 14 19  1  0
 15 20  1  0
 16 20  1  0
 17 21  1  0
 17 22  1  0
 17 23  1  0
 18 24  1  0
 19 24  1  0
 20 25  1  0
 25 26  1  0
 25 27  2  0
 26 28  1  0
 27 29  1  0
 27 30  1  0
 28 31  2  0
 29 31  1  0
 29 32  2  0
 30 33  2  0
 32 33  1  0
M  END
