mac-x0576-diamond-x0837_0_A
     RDKit          3D

 13 14  0  0  0  0  0  0  0  0999 V2000
   -0.0430   13.8750    1.4940 N   0  0  0  0  0  0  0  0  0  0  0  0
   -0.5960   14.9210    0.7260 C   0  0  2  0  0  0  0  0  0  0  0  0
   -1.8980   15.1520    1.2620 N   0  0  0  0  0  0  0  0  0  0  0  0
   -0.6230   14.4190   -0.5850 N   0  0  0  0  0  0  0  0  0  0  0  0
   -1.6550   14.6510   -1.4440 C   0  0  0  0  0  0  0  0  0  0  0  0
   -2.9860   14.4240    0.6710 C   0  0  2  0  0  0  0  0  0  0  0  0
   -1.4190   14.9590   -2.6080 O   0  0  0  0  0  0  0  0  0  0  0  0
   -3.0530   14.5030   -0.8610 C   0  0  1  0  0  0  0  0  0  0  0  0
   -4.1850   14.8510    1.3390 N   0  0  0  0  0  0  0  0  0  0  0  0
   -5.3660   15.0100    0.6630 C   0  0  0  0  0  0  0  0  0  0  0  0
   -3.9610   15.5630   -1.3470 N   0  0  0  0  0  0  0  0  0  0  0  0
   -6.4270   14.8160    1.2530 O   0  0  0  0  0  0  0  0  0  0  0  0
   -5.3240   15.4220   -0.8110 C   0  0  0  0  0  0  0  0  0  0  0  0
  2  1  1  1
  2  3  1  0
  2  4  1  0
  4  5  1  0
  6  3  1  1
  5  7  2  0
  5  8  1  0
  6  8  1  0
  6  9  1  0
  9 10  1  0
  8 11  1  1
 10 12  2  0
 10 13  1  0
 11 13  1  0
M  END
