mac-x0496-mac-x0588
     RDKit          3D

 28 31  0  0  0  0  0  0  0  0999 V2000
   -9.6430   17.6530    4.6640 C   0  0  0  0  0  0  0  0  0  0  0  0
   -9.6310   16.7190    3.5140 C   0  0  0  0  0  0  0  0  0  0  0  0
  -10.3430   16.9070    2.3820 N   0  0  0  0  0  0  0  0  0  0  0  0
   -8.8850   15.5840    3.5110 N   0  0  0  0  0  0  0  0  0  0  0  0
  -10.0350   15.8130    1.6000 O   0  0  0  0  0  0  0  0  0  0  0  0
   -9.1600   15.0750    2.3270 C   0  0  0  0  0  0  0  0  0  0  0  0
   -8.6670   13.8480    1.6770 C   0  0  0  0  0  0  0  0  0  0  0  0
   -7.2480   14.0210    1.4080 N   0  0  0  0  0  0  0  0  0  0  0  0
   -6.7780   14.4990    0.1970 C   0  0  0  0  0  0  0  0  0  0  0  0
   -7.5170   14.9600   -0.6570 O   0  0  0  0  0  0  0  0  0  0  0  0
   -5.2420   14.3720    0.0530 C   0  0  2  0  0  0  0  0  0  0  0  0
   -4.5220   14.9310    1.2190 C   0  0  0  0  0  0  0  0  0  0  0  0
   -4.6240   14.8930   -1.2530 C   0  0  0  0  0  0  0  0  0  0  0  0
   -3.2160   15.1540    1.1890 C   0  0  0  0  0  0  0  0  0  0  0  0
   -3.0910   14.6540   -1.3540 C   0  0  1  0  0  0  0  0  0  0  0  0
   -2.5370   15.4910   -2.5040 C   0  0  0  0  0  0  0  0  0  0  0  0
   -2.3210   14.8920    0.0040 C   0  0  2  0  0  0  0  0  0  0  0  0
   -1.2890   15.8020   -2.5530 N   0  0  0  0  0  0  0  0  0  0  0  0
   -3.4570   15.8730   -3.3940 O   0  0  0  0  0  0  0  0  0  0  0  0
   -1.5820   13.6860    0.4460 N   0  0  0  0  0  0  0  0  0  0  0  0
   -1.1480   15.8840   -0.1250 C   0  0  0  0  0  0  0  0  0  0  0  0
    0.0580   15.0770   -0.2360 N   0  0  0  0  0  0  0  0  0  0  0  0
   -0.2290   14.0970    0.7590 C   0  0  0  0  0  0  0  0  0  0  0  0
   -0.6760   16.6900   -3.5480 C   0  0  2  0  0  0  0  0  0  0  0  0
   -1.5970   17.4750   -4.3320 O   0  0  0  0  0  0  0  0  0  0  0  0
    0.2400   16.0700   -4.5850 C   0  0  0  0  0  0  0  0  0  0  0  0
    0.5370   17.3340   -5.3640 C   0  0  0  0  0  0  0  0  0  0  0  0
   -0.8470   17.9540   -5.4580 C   0  0  0  0  0  0  0  0  0  0  0  0
  1  2  1  0
  2  3  2  0
  2  4  1  0
  3  5  1  0
  4  6  2  0
  5  6  1  0
  6  7  1  0
  7  8  1  0
  8  9  1  0
  9 10  2  0
 11  9  1  1
 11 12  1  0
 11 13  1  0
 12 14  2  0
 13 15  1  0
 15 16  1  6
 17 14  1  1
 15 17  1  0
 16 18  2  3
 16 19  1  0
 17 20  1  0
 17 21  1  0
 21 22  1  0
 20 23  1  0
 22 23  1  0
 24 18  1  6
 24 25  1  0
 24 26  1  0
 26 27  1  0
 25 28  1  0
 27 28  1  0
M  END
