mac-x0358-diamond-x0864_0_A
     RDKit          3D

 19 20  0  0  0  0  0  0  0  0999 V2000
    1.3540   13.2600   -2.3310 O   0  0  0  0  0  0  0  0  0  0  0  0
    0.6240   12.3460   -2.9990 C   0  0  0  0  0  0  0  0  0  0  0  0
    0.1940   11.3860   -2.3770 O   0  0  0  0  0  0  0  0  0  0  0  0
    0.4150   12.6500   -4.4940 C   0  0  2  0  0  0  0  0  0  0  0  0
   -0.7500   13.5620   -4.8420 C   0  0  0  0  0  0  0  0  0  0  0  0
    0.1850   11.3520   -5.1450 N   0  0  0  0  0  0  0  0  0  0  0  0
   -1.9250   12.9390   -5.2790 C   0  0  0  0  0  0  0  0  0  0  0  0
   -0.7420   14.9660   -4.7660 C   0  0  0  0  0  0  0  0  0  0  0  0
   -0.8720   10.5690   -4.6900 C   0  0  0  0  0  0  0  0  0  0  0  0
    0.6000   11.3010   -6.4710 C   0  0  0  0  0  0  0  0  0  0  0  0
   -1.9600   11.5850   -5.3630 O   0  0  0  0  0  0  0  0  0  0  0  0
    1.6170   11.8600   -6.8600 O   0  0  0  0  0  0  0  0  0  0  0  0
   -3.0570   13.6520   -5.6300 C   0  0  0  0  0  0  0  0  0  0  0  0
   -1.8880   15.6950   -5.1190 C   0  0  0  0  0  0  0  0  0  0  0  0
   -1.3720    9.5630   -5.4100 C   0  0  0  0  0  0  0  0  0  0  0  0
   -0.2540   10.4910   -7.4180 C   0  0  0  0  0  0  0  0  0  0  0  0
   -3.0400   15.0370   -5.5500 C   0  0  0  0  0  0  0  0  0  0  0  0
   -0.7930    9.2490   -6.7390 C   0  0  2  0  0  0  0  0  0  0  0  0
   -2.1520    8.3950   -7.8480 Br  0  0  0  0  0  0  0  0  0  0  0  0
  1  2  1  0
  2  3  2  0
  4  2  1  1
  4  5  1  0
  4  6  1  0
  5  7  2  0
  5  8  1  0
  6  9  1  0
  6 10  1  0
  7 11  1  0
 10 12  2  0
  7 13  1  0
  8 14  2  0
  9 15  2  0
 10 16  1  0
 13 17  2  0
 14 17  1  0
 15 18  1  0
 16 18  1  0
 18 19  1  6
M  END
