mac-x0139-diamond-x0727_0_A
     RDKit          3D

 25 27  0  0  0  0  0  0  0  0999 V2000
   -2.2600   15.0740   -3.4600 C   0  0  0  0  0  0  0  0  0  0  0  0
   -1.1630   14.8640   -2.5160 N   0  0  0  0  0  0  0  0  0  0  0  0
    0.1220   14.5200   -3.1570 C   0  0  0  0  0  0  0  0  0  0  0  0
   -1.3250   14.8420   -1.1070 C   0  0  0  0  0  0  0  0  0  0  0  0
    0.0560   13.0760   -3.6610 C   0  0  2  0  0  0  0  0  0  0  0  0
   -2.5460   14.9720   -0.5280 C   0  0  0  0  0  0  0  0  0  0  0  0
   -0.1790   14.7270   -0.3030 N   0  0  0  0  0  0  0  0  0  0  0  0
    0.8620   12.2170   -2.7590 C   0  0  0  0  0  0  0  0  0  0  0  0
    0.6300   12.8480   -5.0530 C   0  0  0  0  0  0  0  0  0  0  0  0
   -2.6260   14.9660    0.9510 C   0  0  0  0  0  0  0  0  0  0  0  0
   -0.3300   14.7080    0.9910 C   0  0  0  0  0  0  0  0  0  0  0  0
   -3.9040   15.1540   -0.9160 C   0  0  0  0  0  0  0  0  0  0  0  0
    1.8500   12.5520   -2.1400 O   0  0  0  0  0  0  0  0  0  0  0  0
    0.3770   10.9700   -2.6900 O   0  0  0  0  0  0  0  0  0  0  0  0
    0.0960   11.6440   -5.6840 N   0  0  0  0  0  0  0  0  0  0  0  0
   -1.5050   14.7620    1.6550 N   0  0  0  0  0  0  0  0  0  0  0  0
   -3.8310   15.1680    1.3750 N   0  0  0  0  0  0  0  0  0  0  0  0
   -4.5870   15.2740    0.2260 C   0  0  0  0  0  0  0  0  0  0  0  0
    0.7240   11.1630   -6.7980 C   0  0  0  0  0  0  0  0  0  0  0  0
    1.7450   11.6640   -7.1740 O   0  0  0  0  0  0  0  0  0  0  0  0
    0.0770    9.9670   -7.4950 C   0  0  0  0  0  0  0  0  0  0  0  0
   -1.2580   10.3520   -8.1390 C   0  0  0  0  0  0  0  0  0  0  0  0
   -0.2370    8.8070   -6.5350 C   0  0  0  0  0  0  0  0  0  0  0  0
   -2.1380    9.1180   -8.0090 C   0  0  0  0  0  0  0  0  0  0  0  0
   -1.7060    8.4570   -6.7120 C   0  0  0  0  0  0  0  0  0  0  0  0
  1  2  1  0
  2  3  1  0
  2  4  1  0
  5  3  1  1
  4  6  2  0
  4  7  1  0
  5  8  1  0
  5  9  1  0
  6 10  1  0
  7 11  2  0
  6 12  1  0
  8 13  2  0
  8 14  1  0
  9 15  1  0
 10 16  1  0
 11 16  1  0
 10 17  2  0
 12 18  2  0
 17 18  1  0
 15 19  1  0
 19 20  2  0
 19 21  1  0
 21 22  1  0
 21 23  1  0
 22 24  1  0
 23 25  1  0
 24 25  1  0
M  END
