mac-x0398-diamond-x0290_0_A
     RDKit          3D

 21 22  0  0  0  0  0  0  0  0999 V2000
   -5.6260   14.1650    0.7660 N   0  0  0  0  0  0  0  0  0  0  0  0
   -6.9770   14.1860    1.4110 N   0  0  0  0  0  0  0  0  0  0  0  0
   -8.0520   14.7320    0.5620 C   0  0  0  0  0  0  0  0  0  0  0  0
   -4.7790   15.1380    1.0940 C   0  0  0  0  0  0  0  0  0  0  0  0
   -5.5060   13.7090   -0.6250 C   0  0  1  0  0  0  0  0  0  0  0  0
   -4.9200   16.2060    0.5530 O   0  0  0  0  0  0  0  0  0  0  0  0
   -3.6760   15.0390    1.7740 N   0  0  0  0  0  0  0  0  0  0  0  0
   -6.8410   13.2130   -1.0910 C   0  0  0  0  0  0  0  0  0  0  0  0
   -5.1380   14.9160   -1.5740 C   0  0  1  0  0  0  0  0  0  0  0  0
   -4.0440   14.6930   -2.6640 C   0  0  0  0  0  0  0  0  0  0  0  0
   -6.4680   15.1630   -2.3080 C   0  0  2  0  0  0  0  0  0  0  0  0
   -2.5230   14.3000    1.4680 C   0  0  2  0  0  0  0  0  0  0  0  0
   -7.3680   14.0160   -2.0040 C   0  0  0  0  0  0  0  0  0  0  0  0
   -4.3550   14.5530   -3.8440 O   0  0  0  0  0  0  0  0  0  0  0  0
   -2.6810   14.6880   -2.3900 O   0  0  0  0  0  0  0  0  0  0  0  0
   -6.2870   15.1010   -3.6920 O   0  0  0  0  0  0  0  0  0  0  0  0
   -1.3220   15.0800    1.5920 N   0  0  0  0  0  0  0  0  0  0  0  0
   -2.7230   13.5820    0.1450 C   0  0  0  0  0  0  0  0  0  0  0  0
   -0.2880   14.6530    0.6740 C   0  0  0  0  0  0  0  0  0  0  0  0
   -2.0860   14.8190   -1.1340 C   0  0  0  0  0  0  0  0  0  0  0  0
   -0.8490   14.4890   -0.7000 C   0  0  0  0  0  0  0  0  0  0  0  0
  1  2  1  0
  2  3  1  0
  1  4  1  0
  1  5  1  0
  4  6  2  0
  4  7  1  0
  5  8  1  6
  5  9  1  0
  9 10  1  6
  9 11  1  0
  7 12  1  0
  8 13  2  0
 11 13  1  0
 10 14  2  0
 10 15  1  0
 11 16  1  6
 12 17  1  0
 12 18  1  6
 17 19  1  0
 15 20  1  0
 19 21  1  0
 20 21  2  0
M  END
