mac-x0373-diamond-x0969_0_A
     RDKit          3D

 21 23  0  0  0  0  0  0  0  0999 V2000
    0.5180   12.7540   -1.3300 O   0  0  0  0  0  0  0  0  0  0  0  0
   -0.0080   13.9340   -1.7670 C   0  0  0  0  0  0  0  0  0  0  0  0
    0.7060   14.9050   -1.9730 O   0  0  0  0  0  0  0  0  0  0  0  0
   -1.5170   13.8630   -1.9670 C   0  0  2  0  0  0  0  0  0  0  0  0
   -1.8680   13.0200   -3.1980 C   0  0  0  0  0  0  0  0  0  0  0  0
   -2.2090   15.2020   -1.4960 C   0  0  1  0  0  0  0  0  0  0  0  0
   -1.2070   13.1250   -4.4440 C   0  0  0  0  0  0  0  0  0  0  0  0
   -2.8880   12.0670   -3.0680 C   0  0  0  0  0  0  0  0  0  0  0  0
   -3.5670   15.7100   -2.0020 C   0  0  0  0  0  0  0  0  0  0  0  0
   -2.2510   15.0780    0.0180 C   0  0  0  0  0  0  0  0  0  0  0  0
   -1.5630   12.2940   -5.5090 C   0  0  0  0  0  0  0  0  0  0  0  0
   -3.2410   11.2440   -4.1300 C   0  0  0  0  0  0  0  0  0  0  0  0
   -4.7350   15.5740   -1.3060 C   0  0  0  0  0  0  0  0  0  0  0  0
   -3.3890   14.8940    0.7040 C   0  0  0  0  0  0  0  0  0  0  0  0
   -2.5800   11.3520   -5.3510 C   0  0  0  0  0  0  0  0  0  0  0  0
   -4.7450   14.8130    0.0120 C   0  0  1  0  0  0  0  0  0  0  0  0
   -5.9620   14.4540    0.9520 C   0  0  1  0  0  0  0  0  0  0  0  0
   -5.0640   13.4770   -0.6410 C   0  0  0  0  0  0  0  0  0  0  0  0
   -6.2850   15.1340    2.1800 N   0  0  0  0  0  0  0  0  0  0  0  0
   -7.0600   14.5080    0.0200 N   0  0  0  0  0  0  0  0  0  0  0  0
   -6.5070   13.6730   -1.0390 N   0  0  0  0  0  0  0  0  0  0  0  0
  1  2  1  0
  2  3  2  0
  4  2  1  6
  4  5  1  0
  4  6  1  0
  5  7  2  0
  5  8  1  0
  6  9  1  6
  6 10  1  0
  7 11  1  0
  8 12  2  0
  9 13  2  0
 10 14  2  0
 11 15  2  0
 12 15  1  0
 16 13  1  6
 14 16  1  0
 16 17  1  0
 16 18  1  0
 17 19  1  1
 17 20  1  0
 18 21  1  0
 20 21  1  0
M  END
