mac-x0565-diamond-x0895_0_A
     RDKit          3D

 18 20  0  0  0  0  0  0  0  0999 V2000
   -5.9330   14.8470    0.5450 O   0  0  0  0  0  0  0  0  0  0  0  0
   -6.3440   14.8820   -0.7500 C   0  0  0  0  0  0  0  0  0  0  0  0
   -7.4710   15.2560   -1.0310 O   0  0  0  0  0  0  0  0  0  0  0  0
   -5.2940   14.3760   -1.7840 C   0  0  2  0  0  0  0  0  0  0  0  0
   -3.8460   14.5050   -1.3590 C   0  0  0  0  0  0  0  0  0  0  0  0
   -5.4720   14.8810   -3.1760 C   0  0  0  0  0  0  0  0  0  0  0  0
   -2.8130   14.0230   -2.3640 C   0  0  1  0  0  0  0  0  0  0  0  0
   -4.4820   14.8820   -4.0910 C   0  0  0  0  0  0  0  0  0  0  0  0
   -3.4960   14.9770   -0.2030 C   0  0  0  0  0  0  0  0  0  0  0  0
   -3.1080   14.3780   -3.8180 C   0  0  1  0  0  0  0  0  0  0  0  0
   -1.5020   14.5700   -2.1030 O   0  0  0  0  0  0  0  0  0  0  0  0
   -4.2660   15.4540    0.8180 N   0  0  0  0  0  0  0  0  0  0  0  0
   -2.2160   15.0170    0.1480 N   0  0  0  0  0  0  0  0  0  0  0  0
   -2.1250   15.3470   -4.1870 O   0  0  0  0  0  0  0  0  0  0  0  0
   -1.0160   14.9900   -3.3800 C   0  0  0  0  0  0  0  0  0  0  0  0
   -3.5930   14.8380    1.9810 C   0  0  0  0  0  0  0  0  0  0  0  0
   -2.1440   14.7510    1.4770 C   0  0  0  0  0  0  0  0  0  0  0  0
   -1.1570   14.5170    2.1050 O   0  0  0  0  0  0  0  0  0  0  0  0
  1  2  1  0
  2  3  2  0
  4  2  1  1
  4  5  1  0
  4  6  1  0
  5  7  1  0
  6  8  2  0
  5  9  2  3
  7 10  1  0
 10  8  1  1
  7 11  1  1
  9 12  1  0
  9 13  1  0
 10 14  1  0
 11 15  1  0
 14 15  1  0
 12 16  1  0
 13 17  1  0
 16 17  1  0
 17 18  2  0
M  END
