mac-x0124-mac-x0255
     RDKit          3D

 25 28  0  0  0  0  0  0  0  0999 V2000
   -0.3170   16.0910   -3.1210 C   0  0  0  0  0  0  0  0  0  0  0  0
   -1.4280   15.3830   -2.5430 N   0  0  0  0  0  0  0  0  0  0  0  0
   -2.7590   15.7110   -2.7680 C   0  0  0  0  0  0  0  0  0  0  0  0
   -1.2830   15.3660   -1.1100 C   0  0  1  0  0  0  0  0  0  0  0  0
   -3.5250   15.3990   -1.7050 C   0  0  0  0  0  0  0  0  0  0  0  0
   -2.6220   14.7760   -0.6650 C   0  0  2  0  0  0  0  0  0  0  0  0
   -0.1420   14.8590   -0.4250 N   0  0  0  0  0  0  0  0  0  0  0  0
    0.1370   13.4650   -0.7220 C   0  0  0  0  0  0  0  0  0  0  0  0
   -2.7620   15.2810    0.7550 C   0  0  1  0  0  0  0  0  0  0  0  0
   -0.3650   15.1190    0.9800 C   0  0  0  0  0  0  0  0  0  0  0  0
   -4.0350   14.8950    1.3350 N   0  0  0  0  0  0  0  0  0  0  0  0
    1.0540   13.3130   -1.8340 O   0  0  0  0  0  0  0  0  0  0  0  0
   -1.6790   14.6980    1.5120 N   0  0  0  0  0  0  0  0  0  0  0  0
    0.7900   12.3220   -2.7460 C   0  0  0  0  0  0  0  0  0  0  0  0
    0.2770   11.2400   -2.4830 O   0  0  0  0  0  0  0  0  0  0  0  0
    1.2290   12.7410   -4.1430 C   0  0  0  0  0  0  0  0  0  0  0  0
    0.5800   14.0350   -4.5400 C   0  0  0  0  0  0  0  0  0  0  0  0
    1.1830   15.2620   -4.7570 C   0  0  0  0  0  0  0  0  0  0  0  0
   -1.1090   14.1260   -4.7810 S   0  0  0  0  0  0  0  0  0  0  0  0
    0.2520   16.2960   -5.1200 C   0  0  0  0  0  0  0  0  0  0  0  0
   -1.0600   15.8070   -5.1670 C   0  0  0  0  0  0  0  0  0  0  0  0
    0.4670   17.6620   -5.4190 C   0  0  0  0  0  0  0  0  0  0  0  0
   -2.1510   16.6450   -5.5000 C   0  0  0  0  0  0  0  0  0  0  0  0
   -0.6090   18.4840   -5.7490 C   0  0  0  0  0  0  0  0  0  0  0  0
   -1.8980   17.9860   -5.7890 C   0  0  0  0  0  0  0  0  0  0  0  0
  1  2  1  0
  2  3  1  0
  4  2  1  6
  3  5  2  0
  4  6  1  0
  6  5  1  6
  4  7  1  0
  7  8  1  0
  6  9  1  0
  7 10  1  0
  9 11  1  1
  8 12  1  0
  9 13  1  0
 10 13  1  0
 12 14  1  0
 14 15  2  0
 14 16  1  0
 16 17  1  0
 17 18  2  0
 17 19  1  0
 18 20  1  0
 19 21  1  0
 20 21  2  0
 20 22  1  0
 21 23  1  0
 22 24  2  0
 23 25  2  0
 24 25  1  0
M  END
