mac-x0354-diamond-x0711_0_A
     RDKit          3D

 28 30  0  0  0  0  0  0  0  0999 V2000
    0.6760   10.9940   -8.3400 C   0  0  0  0  0  0  0  0  0  0  0  0
    0.9280   11.5040   -6.9830 N   0  0  0  0  0  0  0  0  0  0  0  0
    1.8290   12.3790   -6.6100 N   0  0  0  0  0  0  0  0  0  0  0  0
    0.2470   11.1410   -5.8750 C   0  0  0  0  0  0  0  0  0  0  0  0
    1.8120   12.6450   -5.3190 C   0  0  0  0  0  0  0  0  0  0  0  0
    0.7730   11.8350   -4.8170 C   0  0  0  0  0  0  0  0  0  0  0  0
   -0.8140   10.1750   -5.9630 C   0  0  0  0  0  0  0  0  0  0  0  0
    0.3770   11.7810   -3.4420 C   0  0  0  0  0  0  0  0  0  0  0  0
   -0.6220    8.9430   -6.5330 C   0  0  0  0  0  0  0  0  0  0  0  0
   -2.0470   10.4660   -5.4760 C   0  0  0  0  0  0  0  0  0  0  0  0
   -0.1710   12.7760   -2.8580 N   0  0  0  0  0  0  0  0  0  0  0  0
    0.5520   10.6080   -2.6710 O   0  0  0  0  0  0  0  0  0  0  0  0
   -1.6410    8.0000   -6.6210 C   0  0  0  0  0  0  0  0  0  0  0  0
   -3.1090    9.5660   -5.5340 C   0  0  0  0  0  0  0  0  0  0  0  0
   -0.5200   14.0500   -3.3810 S   0  0  0  0  0  0  0  0  0  0  0  0
   -2.8690    8.3510   -6.1090 C   0  0  0  0  0  0  0  0  0  0  0  0
   -1.1190   14.7440   -1.9280 N   0  0  0  0  0  0  0  0  0  0  0  0
   -1.6070   13.6330   -4.5170 C   0  0  0  0  0  0  0  0  0  0  0  0
   -0.4580   15.5930   -3.8660 O   0  0  0  0  0  0  0  0  0  0  0  0
   -2.4720   14.7590   -1.5460 C   0  0  0  0  0  0  0  0  0  0  0  0
   -3.6240   15.0310   -2.2920 C   0  0  0  0  0  0  0  0  0  0  0  0
   -2.7050   14.4660   -0.2150 C   0  0  0  0  0  0  0  0  0  0  0  0
   -4.8920   15.0030   -1.7130 C   0  0  0  0  0  0  0  0  0  0  0  0
   -3.9450   14.4340    0.3690 C   0  0  0  0  0  0  0  0  0  0  0  0
   -5.0840   14.7040   -0.3720 C   0  0  0  0  0  0  0  0  0  0  0  0
   -6.4020   14.6640    0.2660 C   0  0  0  0  0  0  0  0  0  0  0  0
   -6.5080   14.6690    1.6840 N   0  0  0  0  0  0  0  0  0  0  0  0
   -7.4180   14.6280   -0.4210 O   0  0  0  0  0  0  0  0  0  0  0  0
  1  2  1  0
  2  3  1  0
  2  4  1  0
  3  5  2  0
  4  6  2  0
  5  6  1  0
  4  7  1  0
  6  8  1  0
  7  9  2  0
  7 10  1  0
  8 11  2  3
  8 12  1  0
  9 13  1  0
 10 14  2  0
 11 15  1  0
 13 16  2  0
 14 16  1  0
 15 17  1  0
 15 18  1  0
 15 19  2  0
 17 20  1  0
 20 21  2  0
 20 22  1  0
 21 23  1  0
 22 24  2  0
 23 25  2  0
 24 25  1  0
 25 26  1  0
 26 27  1  0
 26 28  2  0
M  END
