mac-x0204-diamond-x0895_1_A
     RDKit          3D

 20 21  0  0  0  0  0  0  0  0999 V2000
    0.7740   12.8640   -2.6620 O   0  0  0  0  0  0  0  0  0  0  0  0
    0.0510   14.0810   -2.6610 C   0  0  0  0  0  0  0  0  0  0  0  0
    0.9830   15.1360   -2.7900 O   0  0  0  0  0  0  0  0  0  0  0  0
   -0.7770   14.2060   -1.3840 C   0  0  0  0  0  0  0  0  0  0  0  0
   -0.9740   14.0960   -3.7760 C   0  0  0  0  0  0  0  0  0  0  0  0
   -0.2020   13.8170   -0.0350 C   0  0  0  0  0  0  0  0  0  0  0  0
   -1.4190   15.2760   -4.3850 C   0  0  0  0  0  0  0  0  0  0  0  0
   -1.5330   12.8970   -4.2320 C   0  0  0  0  0  0  0  0  0  0  0  0
   -0.3860   14.8630    1.0460 C   0  0  0  0  0  0  0  0  0  0  0  0
   -2.3780   15.2140   -5.3880 C   0  0  0  0  0  0  0  0  0  0  0  0
   -2.4640   12.8090   -5.2080 N   0  0  0  0  0  0  0  0  0  0  0  0
   -2.8480   16.3320   -6.0120 O   0  0  0  0  0  0  0  0  0  0  0  0
   -1.7170   14.7470    1.6490 N   0  0  0  0  0  0  0  0  0  0  0  0
   -2.8670   13.9720   -5.7640 C   0  0  0  0  0  0  0  0  0  0  0  0
   -2.8300   14.7000    0.9710 C   0  0  0  0  0  0  0  0  0  0  0  0
   -3.0160   14.7130   -0.5370 C   0  0  0  0  0  0  0  0  0  0  0  0
   -4.0640   14.6230    1.5080 N   0  0  0  0  0  0  0  0  0  0  0  0
   -4.3770   15.1550   -0.5970 N   0  0  0  0  0  0  0  0  0  0  0  0
   -5.0130   14.8480    0.5720 C   0  0  0  0  0  0  0  0  0  0  0  0
   -6.2170   14.7830    0.7310 O   0  0  0  0  0  0  0  0  0  0  0  0
  2  1  1  0
  2  3  1  0
  2  4  1  0
  2  5  1  0
  4  6  1  0
  5  7  2  0
  5  8  1  0
  6  9  1  0
  7 10  1  0
  8 11  2  0
 10 12  1  0
  9 13  1  0
 10 14  2  0
 11 14  1  0
 13 15  2  3
 15 16  1  0
 15 17  1  0
 16 18  1  0
 17 19  1  0
 18 19  1  0
 19 20  2  0
M  END
