mac-x0301-diamond-x0895_0_A
     RDKit          3D

 13 14  0  0  0  0  0  0  0  0999 V2000
    0.4310   14.0210   -3.2660 O   0  0  0  0  0  0  0  0  0  0  0  0
   -0.9170   14.1470   -3.2620 C   0  0  0  0  0  0  0  0  0  0  0  0
   -1.5990   13.8180   -4.2210 O   0  0  0  0  0  0  0  0  0  0  0  0
   -1.4650   14.7490   -1.9820 C   0  0  2  0  0  0  0  0  0  0  0  0
   -1.2390   13.8970   -0.7360 C   0  0  2  0  0  0  0  0  0  0  0  0
   -2.9070   15.1690   -2.1690 C   0  0  0  0  0  0  0  0  0  0  0  0
   -2.1200   14.2080    0.4810 C   0  0  2  0  0  0  0  0  0  0  0  0
   -3.7190   15.4100   -1.1310 C   0  0  0  0  0  0  0  0  0  0  0  0
    0.1110   14.0580   -0.2840 O   0  0  0  0  0  0  0  0  0  0  0  0
   -3.1660   15.2520    0.2360 C   0  0  0  0  0  0  0  0  0  0  0  0
   -1.2740   14.7210    1.5080 O   0  0  0  0  0  0  0  0  0  0  0  0
    0.0300   14.4180    1.1020 C   0  0  0  0  0  0  0  0  0  0  0  0
   -3.5130   15.9630    1.1530 O   0  0  0  0  0  0  0  0  0  0  0  0
  1  2  1  0
  2  3  2  0
  4  2  1  6
  4  5  1  0
  4  6  1  0
  5  7  1  0
  6  8  2  0
  5  9  1  1
  7 10  1  0
  8 10  1  0
  7 11  1  1
  9 12  1  0
 11 12  1  0
 10 13  2  0
M  END
