mac-x0263-mac-x0453
     RDKit          3D

 17 18  0  0  0  0  0  0  0  0999 V2000
  -11.5620   14.3650    2.4750 O   0  0  0  0  0  0  0  0  0  0  0  0
  -10.8800   15.4830    2.8020 C   0  0  0  0  0  0  0  0  0  0  0  0
  -11.2980   16.2490    3.6520 O   0  0  0  0  0  0  0  0  0  0  0  0
   -9.6070   15.6360    2.0170 C   0  0  0  0  0  0  0  0  0  0  0  0
   -9.2390   14.4140    1.1860 C   0  0  0  0  0  0  0  0  0  0  0  0
   -7.9090   14.6430    0.5680 C   0  0  0  0  0  0  0  0  0  0  0  0
   -7.7080   15.0380   -0.7330 N   0  0  0  0  0  0  0  0  0  0  0  0
   -6.7770   14.5060    1.1870 N   0  0  0  0  0  0  0  0  0  0  0  0
   -6.3510   15.1630   -0.9300 C   0  0  0  0  0  0  0  0  0  0  0  0
   -5.8190   14.8270    0.2770 C   0  0  0  0  0  0  0  0  0  0  0  0
   -5.5600   15.5220   -2.0040 C   0  0  0  0  0  0  0  0  0  0  0  0
   -4.4660   14.8310    0.4790 C   0  0  0  0  0  0  0  0  0  0  0  0
   -4.0930   14.4160    1.8280 C   0  0  0  0  0  0  0  0  0  0  0  0
   -4.1650   15.5400   -1.8070 C   0  0  0  0  0  0  0  0  0  0  0  0
   -3.6130   15.1960   -0.5680 C   0  0  0  0  0  0  0  0  0  0  0  0
   -5.0070   13.2040    2.1270 C   0  0  0  0  0  0  0  0  0  0  0  0
   -6.2850   13.5690    2.7570 N   0  0  0  0  0  0  0  0  0  0  0  0
  1  2  1  0
  2  3  2  0
  2  4  1  0
  4  5  1  0
  5  6  1  0
  6  7  1  0
  6  8  2  0
  7  9  1  0
  8 10  1  0
  9 10  2  0
  9 11  1  0
 10 12  1  0
 12 13  1  0
 11 14  2  0
 12 15  2  0
 14 15  1  0
 13 16  1  0
 16 17  1  0
M  END
