mac-x0190-mac-x0496
     RDKit          3D

 24 27  0  0  0  0  0  0  0  0999 V2000
   -9.0520   15.6070   -0.5780 O   0  0  0  0  0  0  0  0  0  0  0  0
   -8.5490   14.3620   -0.1330 C   0  0  1  0  0  0  0  0  0  0  0  0
   -8.3090   13.6840   -1.3720 N   0  0  0  0  0  0  0  0  0  0  0  0
   -7.2800   14.6430    0.5780 C   0  0  0  0  0  0  0  0  0  0  0  0
   -9.6290   13.8160    0.7750 C   0  0  0  0  0  0  0  0  0  0  0  0
   -7.2980   14.1860   -2.1920 C   0  0  0  0  0  0  0  0  0  0  0  0
   -6.0700   14.7530   -0.1200 C   0  0  0  0  0  0  0  0  0  0  0  0
  -10.1710   12.5850    0.5440 O   0  0  0  0  0  0  0  0  0  0  0  0
  -10.1570   14.4120    1.8330 N   0  0  0  0  0  0  0  0  0  0  0  0
   -7.2780   14.8170    1.9440 C   0  0  0  0  0  0  0  0  0  0  0  0
   -7.5020   14.2830   -3.3880 O   0  0  0  0  0  0  0  0  0  0  0  0
   -4.8960   15.0690    0.6010 C   0  0  0  0  0  0  0  0  0  0  0  0
   -6.1850   15.1040    2.6540 N   0  0  0  0  0  0  0  0  0  0  0  0
   -6.0040   14.5570   -1.5160 C   0  0  0  0  0  0  0  0  0  0  0  0
  -11.0660   13.5010    2.2730 C   0  0  0  0  0  0  0  0  0  0  0  0
  -11.1300   12.3820    1.5440 N   0  0  0  0  0  0  0  0  0  0  0  0
  -11.9030   13.7480    3.4620 C   0  0  0  0  0  0  0  0  0  0  0  0
   -4.7520   14.7030   -2.1720 C   0  0  0  0  0  0  0  0  0  0  0  0
   -3.6730   15.2090   -0.0560 C   0  0  0  0  0  0  0  0  0  0  0  0
   -5.0210   15.2300    1.9750 C   0  0  0  0  0  0  0  0  0  0  0  0
   -4.5200   14.5340   -3.6140 C   0  0  0  0  0  0  0  0  0  0  0  0
   -3.6020   15.0310   -1.4350 C   0  0  0  0  0  0  0  0  0  0  0  0
   -3.4410   14.5910   -4.1670 O   0  0  0  0  0  0  0  0  0  0  0  0
   -5.6650   14.2960   -4.2700 O   0  0  0  0  0  0  0  0  0  0  0  0
  2  1  1  6
  2  3  1  0
  2  4  1  0
  2  5  1  0
  3  6  1  0
  4  7  1  0
  5  8  1  0
  5  9  2  0
  4 10  2  0
  6 11  2  0
  7 12  1  0
 10 13  1  0
  6 14  1  0
  7 14  2  0
  9 15  1  0
  8 16  1  0
 15 16  2  0
 15 17  1  0
 14 18  1  0
 12 19  2  0
 12 20  1  0
 13 20  2  0
 18 21  1  0
 18 22  2  0
 19 22  1  0
 21 23  2  0
 21 24  1  0
M  END
