mac-x0347-mac-x0337
     RDKit          3D

 26 28  0  0  0  0  0  0  0  0999 V2000
    1.3960   14.6650   -3.5750 O   0  0  0  0  0  0  0  0  0  0  0  0
    0.7170   14.2690   -2.4860 C   0  0  0  0  0  0  0  0  0  0  0  0
    1.2570   13.6370   -1.6040 O   0  0  0  0  0  0  0  0  0  0  0  0
   -0.7030   14.6820   -2.5090 C   0  0  0  0  0  0  0  0  0  0  0  0
   -1.5310   14.6690   -1.3740 C   0  0  0  0  0  0  0  0  0  0  0  0
   -1.2450   15.1050   -3.7180 C   0  0  0  0  0  0  0  0  0  0  0  0
   -2.8760   15.0780   -1.4810 C   0  0  0  0  0  0  0  0  0  0  0  0
   -2.5330   15.5080   -3.8670 N   0  0  0  0  0  0  0  0  0  0  0  0
   -3.3130   15.4850   -2.7520 C   0  0  0  0  0  0  0  0  0  0  0  0
   -3.7950   15.0710   -0.3240 C   0  0  0  0  0  0  0  0  0  0  0  0
   -3.3970   15.4820    0.9500 C   0  0  0  0  0  0  0  0  0  0  0  0
   -5.1130   14.6320   -0.4840 C   0  0  0  0  0  0  0  0  0  0  0  0
   -5.5080   14.2140   -1.7590 N   0  0  0  0  0  0  0  0  0  0  0  0
   -4.3040   15.4440    2.0140 C   0  0  0  0  0  0  0  0  0  0  0  0
   -6.0160   14.5910    0.5620 C   0  0  0  0  0  0  0  0  0  0  0  0
   -4.2940   13.2870   -2.4610 S   0  0  0  0  0  0  0  0  0  0  0  0
   -5.6060   14.9990    1.8160 C   0  0  0  0  0  0  0  0  0  0  0  0
   -4.1430   13.6460   -3.8550 O   0  0  0  0  0  0  0  0  0  0  0  0
   -3.1860   13.2920   -1.5340 O   0  0  0  0  0  0  0  0  0  0  0  0
   -4.9170   11.6740   -2.3050 C   0  0  0  0  0  0  0  0  0  0  0  0
   -4.2010   10.6340   -2.8730 C   0  0  0  0  0  0  0  0  0  0  0  0
   -6.1070   11.4740   -1.6150 C   0  0  0  0  0  0  0  0  0  0  0  0
   -4.6910    9.3450   -2.7560 C   0  0  0  0  0  0  0  0  0  0  0  0
   -6.5940   10.1820   -1.5010 C   0  0  0  0  0  0  0  0  0  0  0  0
   -5.8900    9.1130   -2.0720 C   0  0  0  0  0  0  0  0  0  0  0  0
   -6.4120    7.7170   -1.9530 C   0  0  0  0  0  0  0  0  0  0  0  0
  1  2  1  0
  2  3  2  0
  2  4  1  0
  4  5  2  0
  4  6  1  0
  5  7  1  0
  6  8  2  0
  7  9  2  0
  8  9  1  0
  7 10  1  0
 10 11  2  0
 10 12  1  0
 12 13  1  0
 11 14  1  0
 12 15  2  0
 16 13  1  0
 14 17  2  0
 15 17  1  0
 16 18  2  0
 16 19  2  0
 16 20  1  0
 20 21  2  0
 20 22  1  0
 21 23  1  0
 22 24  2  0
 23 25  2  0
 24 25  1  0
 25 26  1  0
M  END
