mac-x0303-mac-x0387
     RDKit          3D

 24 27  0  0  0  0  0  0  0  0999 V2000
   -8.6740   12.7980    2.7990 N   0  0  0  0  0  0  0  0  0  0  0  0
   -8.9570   14.3470    2.2080 S   0  0  0  0  0  0  0  0  0  0  0  0
   -8.7260   15.3010    3.2660 O   0  0  0  0  0  0  0  0  0  0  0  0
  -10.1360   14.3580    1.3820 O   0  0  0  0  0  0  0  0  0  0  0  0
   -7.6400   14.6580    1.1120 C   0  0  0  0  0  0  0  0  0  0  0  0
   -7.7780   14.8610   -0.2390 N   0  0  0  0  0  0  0  0  0  0  0  0
   -6.4050   14.7320    1.5030 N   0  0  0  0  0  0  0  0  0  0  0  0
   -6.5310   15.0930   -0.7400 C   0  0  0  0  0  0  0  0  0  0  0  0
   -5.7170   15.0060    0.3710 C   0  0  0  0  0  0  0  0  0  0  0  0
   -6.0580   15.3640   -2.0170 C   0  0  0  0  0  0  0  0  0  0  0  0
   -4.3760   15.1920    0.2680 C   0  0  0  0  0  0  0  0  0  0  0  0
   -3.5610   15.1030    1.3680 N   0  0  0  0  0  0  0  0  0  0  0  0
   -4.6880   15.5530   -2.1240 C   0  0  0  0  0  0  0  0  0  0  0  0
   -3.8670   15.4710   -1.0040 C   0  0  0  0  0  0  0  0  0  0  0  0
   -2.2840   14.7810    1.0260 C   0  0  0  0  0  0  0  0  0  0  0  0
   -2.0840   14.7230   -0.3760 C   0  0  0  0  0  0  0  0  0  0  0  0
   -1.3470   14.5560    1.9240 N   0  0  0  0  0  0  0  0  0  0  0  0
   -0.8140   14.4370   -0.8390 C   0  0  0  0  0  0  0  0  0  0  0  0
   -0.1450   14.2840    1.4480 C   0  0  0  0  0  0  0  0  0  0  0  0
   -3.1020   14.9430   -1.3410 C   0  0  0  0  0  0  0  0  0  0  0  0
    0.1750   14.2160    0.0930 C   0  0  0  0  0  0  0  0  0  0  0  0
   -0.5570   14.3780   -2.2230 C   0  0  0  0  0  0  0  0  0  0  0  0
   -2.8460   14.8780   -2.7190 C   0  0  0  0  0  0  0  0  0  0  0  0
   -1.5710   14.5980   -3.1530 C   0  0  0  0  0  0  0  0  0  0  0  0
  2  1  1  0
  2  3  2  0
  2  4  2  0
  2  5  1  0
  5  6  1  0
  5  7  2  0
  6  8  1  0
  7  9  1  0
  8  9  2  0
  8 10  1  0
  9 11  1  0
 11 12  1  0
 10 13  2  0
 11 14  2  0
 13 14  1  0
 12 15  1  0
 15 16  1  0
 15 17  2  0
 16 18  2  0
 17 19  1  0
 16 20  1  0
 18 21  1  0
 19 21  2  0
 18 22  1  0
 20 23  2  0
 22 24  2  0
 23 24  1  0
M  END
