mac-x0319-diamond-x0421_0_A
     RDKit          3D

 22 24  0  0  0  0  0  0  0  0999 V2000
    0.4700   10.2710   -2.5600 O   0  0  0  0  0  0  0  0  0  0  0  0
    0.7900   11.5850   -2.5970 C   0  0  0  0  0  0  0  0  0  0  0  0
    0.7680   12.2280   -1.5530 O   0  0  0  0  0  0  0  0  0  0  0  0
    1.1320   12.0930   -3.9890 C   0  0  0  0  0  0  0  0  0  0  0  0
    0.6420   13.4790   -4.0730 C   0  0  0  0  0  0  0  0  0  0  0  0
    1.1310   14.4540   -4.9190 C   0  0  0  0  0  0  0  0  0  0  0  0
   -0.3590   13.7630   -3.2080 C   0  0  0  0  0  0  0  0  0  0  0  0
    0.5830   15.7320   -4.8700 C   0  0  0  0  0  0  0  0  0  0  0  0
   -0.9170   14.9900   -3.1240 C   0  0  0  0  0  0  0  0  0  0  0  0
    1.0390   16.7440   -5.6660 O   0  0  0  0  0  0  0  0  0  0  0  0
   -1.8860   15.0120   -2.1020 N   0  0  0  0  0  0  0  0  0  0  0  0
   -0.4500   16.0150   -3.9880 C   0  0  0  0  0  0  0  0  0  0  0  0
   -3.1610   15.0870   -2.0860 C   0  0  0  0  0  0  0  0  0  0  0  0
   -4.0570   15.1990   -3.1140 N   0  0  0  0  0  0  0  0  0  0  0  0
   -3.7270   15.0170   -0.7150 C   0  0  0  0  0  0  0  0  0  0  0  0
   -3.0180   15.0970    0.4890 C   0  0  0  0  0  0  0  0  0  0  0  0
   -5.0700   14.8470   -0.4210 N   0  0  0  0  0  0  0  0  0  0  0  0
   -3.9410   14.9710    1.4880 N   0  0  0  0  0  0  0  0  0  0  0  0
   -5.1540   14.8210    0.8930 C   0  0  0  0  0  0  0  0  0  0  0  0
   -6.4650   14.6390    1.6910 C   0  0  0  0  0  0  0  0  0  0  0  0
   -7.7840   14.6550    0.9660 C   0  0  0  0  0  0  0  0  0  0  0  0
   -7.2400   13.3650    1.5060 C   0  0  0  0  0  0  0  0  0  0  0  0
  1  2  1  0
  2  3  2  0
  2  4  1  0
  4  5  1  0
  5  6  2  0
  5  7  1  0
  6  8  1  0
  7  9  2  0
  8 10  1  0
  9 11  1  0
  8 12  2  0
  9 12  1  0
 11 13  2  3
 13 14  1  0
 13 15  1  0
 15 16  2  0
 15 17  1  0
 16 18  1  0
 17 19  2  0
 18 19  1  0
 19 20  1  0
 20 21  1  0
 20 22  1  0
 21 22  1  0
M  END
