mac-x0584-mac-x0223
     RDKit          3D

 25 28  0  0  0  0  0  0  0  0999 V2000
    0.9320   17.8390   -5.3170 C   0  0  0  0  0  0  0  0  0  0  0  0
    0.4860   16.4810   -5.4070 O   0  0  0  0  0  0  0  0  0  0  0  0
   -0.3150   16.0890   -4.2750 C   0  0  2  0  0  0  0  0  0  0  0  0
   -0.2240   14.6070   -3.6870 C   0  0  2  0  0  0  0  0  0  0  0  0
   -1.7950   16.1540   -4.6920 C   0  0  2  0  0  0  0  0  0  0  0  0
    0.9980   14.1880   -2.8720 C   0  0  0  0  0  0  0  0  0  0  0  0
   -2.2460   17.5280   -4.7620 O   0  0  0  0  0  0  0  0  0  0  0  0
   -0.2450   13.5070   -4.7510 C   0  0  0  0  0  0  0  0  0  0  0  0
   -1.4330   14.6670   -2.7870 N   0  0  0  0  0  0  0  0  0  0  0  0
   -2.5070   15.3080   -3.6020 C   0  0  0  0  0  0  0  0  0  0  0  0
    0.7500   12.8070   -2.3220 C   0  0  0  0  0  0  0  0  0  0  0  0
    1.0350   12.6330   -5.0020 C   0  0  0  0  0  0  0  0  0  0  0  0
   -1.0450   12.1980   -4.4890 C   0  0  0  0  0  0  0  0  0  0  0  0
   -1.4990   14.7200   -1.3760 C   0  0  0  0  0  0  0  0  0  0  0  0
    0.5870   11.7800   -2.9600 O   0  0  0  0  0  0  0  0  0  0  0  0
    0.6870   12.7880   -0.9920 O   0  0  0  0  0  0  0  0  0  0  0  0
    0.1550   11.3640   -4.9580 C   0  0  0  0  0  0  0  0  0  0  0  0
   -0.3900   14.5740   -0.5600 N   0  0  0  0  0  0  0  0  0  0  0  0
   -2.6430   14.9370   -0.6850 C   0  0  0  0  0  0  0  0  0  0  0  0
   -0.4650   14.5930    0.8110 C   0  0  0  0  0  0  0  0  0  0  0  0
   -2.6350   14.9800    0.8050 C   0  0  0  0  0  0  0  0  0  0  0  0
   -4.0160   15.1750   -0.9970 C   0  0  0  0  0  0  0  0  0  0  0  0
   -1.5080   14.7690    1.5370 N   0  0  0  0  0  0  0  0  0  0  0  0
   -3.8090   15.2330    1.3000 N   0  0  0  0  0  0  0  0  0  0  0  0
   -4.6230   15.3440    0.1850 C   0  0  0  0  0  0  0  0  0  0  0  0
  1  2  1  0
  3  2  1  6
  3  4  1  0
  3  5  1  0
  4  6  1  1
  5  7  1  1
  4  8  1  0
  4  9  1  0
  5 10  1  0
  9 10  1  0
  6 11  1  0
  8 12  1  0
  8 13  1  0
  9 14  1  0
 11 15  2  0
 11 16  1  0
 12 17  1  0
 13 17  1  0
 14 18  1  0
 14 19  2  0
 18 20  1  0
 19 21  1  0
 19 22  1  0
 20 23  2  0
 21 23  1  0
 21 24  2  0
 22 25  2  0
 24 25  1  0
M  END
