mac-x0213-mac-x0159
     RDKit          3D

 24 27  0  0  0  0  0  0  0  0999 V2000
    0.4000   11.2180   -3.2260 O   0  0  0  0  0  0  0  0  0  0  0  0
    1.0100   12.4220   -3.1420 C   0  0  0  0  0  0  0  0  0  0  0  0
    1.8750   12.6640   -2.3290 O   0  0  0  0  0  0  0  0  0  0  0  0
    0.4640   13.3890   -4.1440 C   0  0  1  0  0  0  0  0  0  0  0  0
   -0.6800   14.0840   -3.4720 C   0  0  0  0  0  0  0  0  0  0  0  0
    1.4190   14.5040   -4.6090 C   0  0  0  0  0  0  0  0  0  0  0  0
   -0.7010   15.3720   -4.1800 C   0  0  0  0  0  0  0  0  0  0  0  0
    0.4610   15.6430   -4.8450 C   0  0  0  0  0  0  0  0  0  0  0  0
   -1.7470   16.1760   -4.1680 C   0  0  0  0  0  0  0  0  0  0  0  0
    0.5830   16.8230   -5.5790 C   0  0  0  0  0  0  0  0  0  0  0  0
   -2.8450   15.6190   -3.3250 C   0  0  0  0  0  0  0  0  0  0  0  0
   -1.6900   17.3770   -4.9040 C   0  0  0  0  0  0  0  0  0  0  0  0
   -0.5220   17.7030   -5.6190 C   0  0  0  0  0  0  0  0  0  0  0  0
   -0.4760   18.9710   -6.4090 C   0  0  0  0  0  0  0  0  0  0  0  0
   -2.4050   14.7970   -2.1580 N   0  0  0  0  0  0  0  0  0  0  0  0
   -3.6260   14.4030   -1.5280 C   0  0  0  0  0  0  0  0  0  0  0  0
   -1.4990   15.4130   -1.1560 C   0  0  1  0  0  0  0  0  0  0  0  0
   -4.2510   15.5380   -0.9200 N   0  0  0  0  0  0  0  0  0  0  0  0
   -2.0340   15.6190    0.2710 C   0  0  1  0  0  0  0  0  0  0  0  0
   -0.2860   14.6030   -0.8950 N   0  0  0  0  0  0  0  0  0  0  0  0
   -3.5870   15.7400    0.3330 C   0  0  2  0  0  0  0  0  0  0  0  0
   -1.5130   14.4850    1.0430 N   0  0  0  0  0  0  0  0  0  0  0  0
   -0.1600   14.4670    0.5490 C   0  0  0  0  0  0  0  0  0  0  0  0
   -4.1500   14.6900    1.1350 N   0  0  0  0  0  0  0  0  0  0  0  0
  1  2  1  0
  2  3  2  0
  4  2  1  1
  4  5  1  0
  4  6  1  0
  5  7  1  0
  6  8  1  0
  7  8  2  0
  7  9  1  0
  8 10  1  0
  9 11  1  0
  9 12  2  0
 10 13  2  0
 12 13  1  0
 13 14  1  0
 11 15  1  0
 15 16  1  0
 15 17  1  0
 16 18  1  0
 17 19  1  0
 17 20  1  1
 18 21  1  0
 19 21  1  0
 19 22  1  1
 20 23  1  0
 22 23  1  0
 21 24  1  1
M  END
