mac-x0375-mac-x0415
     RDKit          3D

 21 23  0  0  0  0  0  0  0  0999 V2000
    1.8150   12.8230   -2.5100 O   0  0  0  0  0  0  0  0  0  0  0  0
    1.0110   11.9970   -3.1950 C   0  0  0  0  0  0  0  0  0  0  0  0
    0.7910   10.8880   -2.7490 O   0  0  0  0  0  0  0  0  0  0  0  0
    0.4560   12.5850   -4.4840 C   0  0  2  0  0  0  0  0  0  0  0  0
    0.6190   11.7360   -5.6230 O   0  0  0  0  0  0  0  0  0  0  0  0
    0.9370   14.0160   -4.8170 C   0  0  2  0  0  0  0  0  0  0  0  0
   -0.3970   10.8660   -5.9280 C   0  0  0  0  0  0  0  0  0  0  0  0
    1.6390   14.8650   -3.7200 C   0  0  0  0  0  0  0  0  0  0  0  0
   -0.2070   14.9410   -5.1120 C   0  0  2  0  0  0  0  0  0  0  0  0
   -0.3230    9.7500   -6.7680 C   0  0  0  0  0  0  0  0  0  0  0  0
   -1.6160   11.1640   -5.3110 C   0  0  0  0  0  0  0  0  0  0  0  0
    1.1200   16.2550   -3.8620 N   0  0  0  0  0  0  0  0  0  0  0  0
    0.4860   16.2970   -5.1660 C   0  0  2  0  0  0  0  0  0  0  0  0
   -1.4890   14.9430   -4.2870 C   0  0  0  0  0  0  0  0  0  0  0  0
   -1.4530    8.9520   -6.9740 C   0  0  0  0  0  0  0  0  0  0  0  0
   -2.7410   10.3680   -5.5180 C   0  0  0  0  0  0  0  0  0  0  0  0
   -0.4640   17.4080   -5.4790 C   0  0  0  0  0  0  0  0  0  0  0  0
   -2.4560   16.0470   -4.7400 C   0  0  2  0  0  0  0  0  0  0  0  0
   -3.7240   15.3370   -6.0630 Br  0  0  0  0  0  0  0  0  0  0  0  0
   -2.6590    9.2590   -6.3520 C   0  0  0  0  0  0  0  0  0  0  0  0
   -1.7940   17.2900   -5.2930 C   0  0  0  0  0  0  0  0  0  0  0  0
  1  2  1  0
  2  3  2  0
  2  4  1  0
  4  5  1  6
  4  6  1  0
  5  7  1  0
  6  8  1  1
  6  9  1  0
  7 10  2  0
  7 11  1  0
  8 12  1  0
  9 13  1  0
 12 13  1  0
  9 14  1  1
 10 15  1  0
 11 16  2  0
 13 17  1  1
 14 18  1  0
 18 19  1  6
 15 20  2  0
 16 20  1  0
 17 21  2  0
 18 21  1  0
M  END
