mac-x0212-mac-x0365
     RDKit          3D

 16 17  0  0  0  0  0  0  0  0999 V2000
   -6.3590   12.7120    1.4100 C   0  0  0  0  0  0  0  0  0  0  0  0
   -6.8900   14.3660    1.0090 S   0  0  0  0  0  0  0  0  0  0  0  0
   -7.7190   14.8630    2.0870 O   0  0  0  0  0  0  0  0  0  0  0  0
   -7.3720   14.3700   -0.3510 O   0  0  0  0  0  0  0  0  0  0  0  0
   -5.3840   15.1730    0.9940 N   0  0  0  0  0  0  0  0  0  0  0  0
   -4.5320   15.0340   -0.1470 C   0  0  0  0  0  0  0  0  0  0  0  0
   -3.1910   14.6990    0.0700 C   0  0  0  0  0  0  0  0  0  0  0  0
   -5.0240   15.2280   -1.4660 C   0  0  0  0  0  0  0  0  0  0  0  0
   -6.3090   15.5490   -1.6910 F   0  0  0  0  0  0  0  0  0  0  0  0
   -2.3850   14.5640   -1.0490 C   0  0  0  0  0  0  0  0  0  0  0  0
   -4.2030   15.0900   -2.5680 C   0  0  0  0  0  0  0  0  0  0  0  0
   -0.9400   14.2260   -1.1990 C   0  0  0  0  0  0  0  0  0  0  0  0
   -2.8980   14.7560   -2.3180 C   0  0  0  0  0  0  0  0  0  0  0  0
   -1.7850   14.5200   -3.1940 C   0  0  0  0  0  0  0  0  0  0  0  0
   -0.6470   14.2110   -2.6730 N   0  0  0  0  0  0  0  0  0  0  0  0
   -1.9700   14.6210   -4.5040 O   0  0  0  0  0  0  0  0  0  0  0  0
  1  2  1  0
  2  3  2  0
  2  4  2  0
  2  5  1  0
  5  6  1  0
  6  7  2  0
  6  8  1  0
  8  9  1  0
  7 10  1  0
  8 11  2  0
 10 12  1  0
 10 13  2  0
 11 13  1  0
 13 14  1  0
 12 15  1  0
 14 15  2  0
 14 16  1  0
M  END
