mac-x0417-mac-x0193
     RDKit          3D

 23 25  0  0  0  0  0  0  0  0999 V2000
   -0.1080   13.6020   -3.0070 O   0  0  0  0  0  0  0  0  0  0  0  0
   -0.8020   12.5510   -3.5110 C   0  0  0  0  0  0  0  0  0  0  0  0
   -1.9270   12.3240   -3.1040 O   0  0  0  0  0  0  0  0  0  0  0  0
   -0.0060   11.7740   -4.5570 C   0  0  2  0  0  0  0  0  0  0  0  0
    0.3860   12.6440   -5.6410 N   0  0  0  0  0  0  0  0  0  0  0  0
   -0.7500   10.6520   -5.2080 C   0  0  0  0  0  0  0  0  0  0  0  0
    1.0740   12.0410   -6.6410 C   0  0  0  0  0  0  0  0  0  0  0  0
   -0.2830   10.1550   -6.3660 N   0  0  0  0  0  0  0  0  0  0  0  0
   -1.9270    9.9690   -4.8180 C   0  0  0  0  0  0  0  0  0  0  0  0
    2.2840   11.9830   -6.6100 O   0  0  0  0  0  0  0  0  0  0  0  0
    0.2450   11.5230   -7.6250 N   0  0  0  0  0  0  0  0  0  0  0  0
   -1.1320    9.1480   -6.7460 O   0  0  0  0  0  0  0  0  0  0  0  0
   -2.1110    9.0340   -5.8300 C   0  0  0  0  0  0  0  0  0  0  0  0
   -2.8550   10.0070   -3.7630 C   0  0  0  0  0  0  0  0  0  0  0  0
   -3.1500    8.1220   -5.8840 C   0  0  0  0  0  0  0  0  0  0  0  0
   -3.9200    9.0950   -3.7900 C   0  0  0  0  0  0  0  0  0  0  0  0
    0.7100   10.7630   -8.7920 C   0  0  0  0  0  0  0  0  0  0  0  0
   -4.0630    8.1720   -4.8300 C   0  0  0  0  0  0  0  0  0  0  0  0
    1.0560    9.3130   -8.4430 C   0  0  0  0  0  0  0  0  0  0  0  0
   -0.3160   10.8090   -9.9330 C   0  0  0  0  0  0  0  0  0  0  0  0
    1.5530    8.5270   -9.6580 C   0  0  0  0  0  0  0  0  0  0  0  0
    0.0870    9.9530  -11.1420 C   0  0  0  0  0  0  0  0  0  0  0  0
    1.4530    9.3040  -10.9710 C   0  0  0  0  0  0  0  0  0  0  0  0
  1  2  1  0
  2  3  2  0
  2  4  1  0
  4  5  1  6
  4  6  1  0
  5  7  1  0
  6  8  2  0
  6  9  1  0
  7 10  2  0
  7 11  1  0
  8 12  1  0
  9 13  2  0
 12 13  1  0
  9 14  1  0
 13 15  1  0
 14 16  2  0
 11 17  1  0
 15 18  2  0
 16 18  1  0
 17 19  1  0
 17 20  1  0
 19 21  1  0
 20 22  1  0
 21 23  1  0
 22 23  1  0
M  END
