mac-x0510-mac-x0392
     RDKit          3D

 14 15  0  0  0  0  0  0  0  0999 V2000
   -6.1580   14.9300    1.0410 O   0  0  0  0  0  0  0  0  0  0  0  0
   -5.0160   15.0630    0.6150 C   0  0  0  0  0  0  0  0  0  0  0  0
   -4.7960   15.2690   -0.7210 N   0  0  0  0  0  0  0  0  0  0  0  0
   -3.9200   15.0030    1.4400 N   0  0  0  0  0  0  0  0  0  0  0  0
   -2.6810   14.8530    0.8820 C   0  0  0  0  0  0  0  0  0  0  0  0
   -3.5920   15.1550   -1.3670 C   0  0  0  0  0  0  0  0  0  0  0  0
   -3.5130   15.2730   -2.5820 O   0  0  0  0  0  0  0  0  0  0  0  0
   -2.5170   14.9150   -0.4740 C   0  0  0  0  0  0  0  0  0  0  0  0
   -1.5170   14.6350    1.5420 N   0  0  0  0  0  0  0  0  0  0  0  0
   -1.1900   14.7140   -0.7160 N   0  0  0  0  0  0  0  0  0  0  0  0
   -0.6240   14.5530    0.5560 C   0  0  0  0  0  0  0  0  0  0  0  0
   -0.5860   14.6870   -1.9880 C   0  0  0  0  0  0  0  0  0  0  0  0
   -1.2080   14.5810   -3.0360 O   0  0  0  0  0  0  0  0  0  0  0  0
    0.7520   14.7940   -1.9560 O   0  0  0  0  0  0  0  0  0  0  0  0
  1  2  2  0
  2  3  1  0
  2  4  1  0
  4  5  1  0
  3  6  1  0
  6  7  2  0
  5  8  2  0
  6  8  1  0
  5  9  1  0
  8 10  1  0
  9 11  2  0
 10 11  1  0
 10 12  1  0
 12 13  2  0
 12 14  1  0
M  END
