mac-x0360-mac-x0139
     RDKit          3D

 27 29  0  0  0  0  0  0  0  0999 V2000
   -7.3550   12.1730    1.5840 Cl  0  0  0  0  0  0  0  0  0  0  0  0
   -6.4500   12.1160    0.1170 C   0  0  0  0  0  0  0  0  0  0  0  0
   -6.3270   10.9010   -0.5500 C   0  0  0  0  0  0  0  0  0  0  0  0
   -5.8580   13.2700   -0.3960 C   0  0  0  0  0  0  0  0  0  0  0  0
   -5.1340   13.1810   -1.6010 C   0  0  0  0  0  0  0  0  0  0  0  0
   -5.6000   10.8340   -1.7350 C   0  0  0  0  0  0  0  0  0  0  0  0
   -5.4350    9.3370   -2.5660 Cl  0  0  0  0  0  0  0  0  0  0  0  0
   -4.3730   14.6200   -2.3250 S   0  0  0  0  0  0  0  0  0  0  0  0
   -5.0010   11.9660   -2.2660 C   0  0  0  0  0  0  0  0  0  0  0  0
   -2.8330   14.0810   -2.8220 N   0  0  0  0  0  0  0  0  0  0  0  0
   -5.1370   14.9340   -3.4990 O   0  0  0  0  0  0  0  0  0  0  0  0
   -4.1640   15.5940   -1.2880 O   0  0  0  0  0  0  0  0  0  0  0  0
   -1.6170   14.7050   -2.1870 N   0  0  0  0  0  0  0  0  0  0  0  0
   -0.4100   14.6620   -3.0480 C   0  0  0  0  0  0  0  0  0  0  0  0
   -1.5090   14.5550   -0.8030 C   0  0  0  0  0  0  0  0  0  0  0  0
   -0.1020   13.2760   -3.6240 C   0  0  0  0  0  0  0  0  0  0  0  0
   -2.4750   14.9580    0.0580 C   0  0  0  0  0  0  0  0  0  0  0  0
   -0.3450   13.9400   -0.3440 N   0  0  0  0  0  0  0  0  0  0  0  0
    0.3110   12.2610   -2.5840 C   0  0  0  0  0  0  0  0  0  0  0  0
   -2.2190   14.7350    1.4770 C   0  0  0  0  0  0  0  0  0  0  0  0
   -0.2160   13.8090    0.9300 C   0  0  0  0  0  0  0  0  0  0  0  0
   -3.7670   15.5750    0.0600 C   0  0  0  0  0  0  0  0  0  0  0  0
    0.5080   12.5340   -1.4130 O   0  0  0  0  0  0  0  0  0  0  0  0
    0.4500   11.0010   -3.0450 O   0  0  0  0  0  0  0  0  0  0  0  0
   -1.0740   14.2320    1.8530 N   0  0  0  0  0  0  0  0  0  0  0  0
   -3.1770   15.0790    2.2060 N   0  0  0  0  0  0  0  0  0  0  0  0
   -4.1170   15.5850    1.3430 C   0  0  0  0  0  0  0  0  0  0  0  0
  1  2  1  0
  2  3  2  0
  2  4  1  0
  4  5  2  0
  3  6  1  0
  6  7  1  0
  5  8  1  0
  5  9  1  0
  6  9  2  0
  8 10  1  0
  8 11  2  0
  8 12  2  0
 10 13  1  0
 13 14  1  0
 13 15  1  0
 14 16  1  0
 15 17  2  0
 15 18  1  0
 16 19  1  0
 17 20  1  0
 18 21  2  0
 17 22  1  0
 19 23  2  0
 19 24  1  0
 20 25  1  0
 21 25  1  0
 20 26  2  0
 22 27  2  0
 26 27  1  0
M  END
