mac-x0394-mac-x0472
     RDKit          3D

 26 28  0  0  0  0  0  0  0  0999 V2000
    0.6460   18.2160   -5.4640 Cl  0  0  0  0  0  0  0  0  0  0  0  0
    0.0660   16.6420   -4.9850 C   0  0  0  0  0  0  0  0  0  0  0  0
   -1.2790   16.3640   -4.7460 C   0  0  0  0  0  0  0  0  0  0  0  0
    0.9640   15.6070   -4.8240 C   0  0  0  0  0  0  0  0  0  0  0  0
    0.5650   14.3500   -4.4480 C   0  0  0  0  0  0  0  0  0  0  0  0
   -1.7130   15.1030   -4.3570 C   0  0  0  0  0  0  0  0  0  0  0  0
   -3.0750   14.7290   -4.0620 N   0  0  0  0  0  0  0  0  0  0  0  0
    1.5130   13.2360   -4.2640 C   0  0  0  0  0  0  0  0  0  0  0  0
   -0.7780   14.1280   -4.2230 C   0  0  0  0  0  0  0  0  0  0  0  0
    1.1030   12.4210   -3.1260 C   0  0  0  0  0  0  0  0  0  0  0  0
   -3.7620   14.5500   -2.6010 S   0  0  0  0  0  0  0  0  0  0  0  0
    0.4070   11.2450   -3.3340 O   0  0  0  0  0  0  0  0  0  0  0  0
    1.3510   12.7690   -1.9590 O   0  0  0  0  0  0  0  0  0  0  0  0
   -4.7820   15.6450   -2.9420 O   0  0  0  0  0  0  0  0  0  0  0  0
   -2.3950   14.7830   -1.7030 N   0  0  0  0  0  0  0  0  0  0  0  0
   -4.2250   12.8520   -2.4990 C   0  0  0  0  0  0  0  0  0  0  0  0
   -2.6940   14.9250   -0.3340 C   0  0  0  0  0  0  0  0  0  0  0  0
   -3.4270   11.8540   -2.9330 C   0  0  0  0  0  0  0  0  0  0  0  0
   -5.4420   12.6300   -1.9320 C   0  0  0  0  0  0  0  0  0  0  0  0
   -2.0350   14.6150    0.7770 N   0  0  0  0  0  0  0  0  0  0  0  0
   -4.1420   15.5990    0.3140 S   0  0  0  0  0  0  0  0  0  0  0  0
   -3.8530   10.5520   -2.8030 C   0  0  0  0  0  0  0  0  0  0  0  0
   -5.8510   11.3210   -1.8110 C   0  0  0  0  0  0  0  0  0  0  0  0
   -3.7750   15.4200    1.9510 C   0  0  0  0  0  0  0  0  0  0  0  0
   -2.5650   14.8560    1.8800 N   0  0  0  0  0  0  0  0  0  0  0  0
   -5.0780   10.2710   -2.2390 C   0  0  0  0  0  0  0  0  0  0  0  0
  1  2  1  0
  2  3  2  0
  2  4  1  0
  4  5  2  0
  3  6  1  0
  6  7  1  0
  5  8  1  0
  5  9  1  0
  6  9  2  0
  8 10  1  0
  7 11  1  0
 10 12  1  0
 10 13  2  0
 11 14  2  0
 11 15  1  0
 11 16  1  0
 15 17  1  0
 16 18  2  0
 16 19  1  0
 17 20  2  0
 17 21  1  0
 18 22  1  0
 19 23  2  0
 21 24  1  0
 20 25  1  0
 24 25  2  0
 22 26  2  0
 23 26  1  0
M  END
