mac-x0182-mac-x0397
     RDKit          3D

 25 28  0  0  0  0  0  0  0  0999 V2000
    1.6760   11.8500   -7.0280 O   0  0  0  0  0  0  0  0  0  0  0  0
    0.7830   11.5300   -6.2890 C   0  0  0  0  0  0  0  0  0  0  0  0
    0.6180   12.0030   -5.0170 N   0  0  0  0  0  0  0  0  0  0  0  0
   -0.2510   10.5330   -6.6570 C   0  0  0  0  0  0  0  0  0  0  0  0
   -0.5890   11.1560   -4.2130 S   0  0  2  0  0  0  0  0  0  0  0  0
   -1.0920   10.2300   -5.5940 C   0  0  0  0  0  0  0  0  0  0  0  0
   -0.4200    9.9260   -7.8910 C   0  0  0  0  0  0  0  0  0  0  0  0
   -1.5100   12.3120   -3.8690 N   0  0  0  0  0  0  0  0  0  0  0  0
    0.0750   10.2900   -3.2780 O   0  0  0  0  0  0  0  0  0  0  0  0
   -2.1300    9.3220   -5.7010 C   0  0  0  0  0  0  0  0  0  0  0  0
   -1.4650    9.0000   -8.0280 C   0  0  0  0  0  0  0  0  0  0  0  0
   -0.9730   13.2130   -2.8230 C   0  0  0  0  0  0  0  0  0  0  0  0
   -2.3100    8.7040   -6.9410 C   0  0  0  0  0  0  0  0  0  0  0  0
   -1.5640   14.6270   -2.9030 C   0  0  0  0  0  0  0  0  0  0  0  0
   -2.7590   14.7450   -1.9870 C   0  0  0  0  0  0  0  0  0  0  0  0
   -4.0250   14.9820   -2.5170 C   0  0  0  0  0  0  0  0  0  0  0  0
   -2.5880   14.6060   -0.5960 C   0  0  0  0  0  0  0  0  0  0  0  0
   -3.7150   14.7010    0.2340 C   0  0  0  0  0  0  0  0  0  0  0  0
   -5.1160   15.0670   -1.6590 C   0  0  0  0  0  0  0  0  0  0  0  0
   -6.7030   15.3400   -2.2160 Cl  0  0  0  0  0  0  0  0  0  0  0  0
   -4.9870   14.9270   -0.2770 C   0  0  0  0  0  0  0  0  0  0  0  0
   -3.8310   14.5720    1.9370 S   0  0  0  0  0  0  0  0  0  0  0  0
   -5.5270   14.8160    1.8580 C   0  0  0  0  0  0  0  0  0  0  0  0
   -5.9980   14.9840    0.6600 N   0  0  0  0  0  0  0  0  0  0  0  0
   -6.3390   14.8420    2.9320 N   0  0  0  0  0  0  0  0  0  0  0  0
  1  2  2  0
  2  3  1  0
  2  4  1  0
  5  3  1  6
  4  6  2  0
  5  6  1  0
  4  7  1  0
  5  8  2  0
  5  9  2  0
  6 10  1  0
  7 11  2  0
  8 12  1  0
 10 13  2  0
 11 13  1  0
 12 14  1  0
 14 15  1  0
 15 16  2  0
 15 17  1  0
 17 18  2  0
 16 19  1  0
 19 20  1  0
 18 21  1  0
 19 21  2  0
 18 22  1  0
 22 23  1  0
 21 24  1  0
 23 24  2  0
 23 25  1  0
M  END
