mac-x0263-diamond-x0587_0_A
     RDKit          3D

 19 20  0  0  0  0  0  0  0  0999 V2000
  -11.5250   14.1500    2.3640 O   0  0  0  0  0  0  0  0  0  0  0  0
  -10.5790   15.0900    2.1850 C   0  0  0  0  0  0  0  0  0  0  0  0
  -10.6550   16.1430    2.8100 O   0  0  0  0  0  0  0  0  0  0  0  0
   -9.5100   14.6640    1.1800 C   0  0  0  0  0  0  0  0  0  0  0  0
   -8.1480   14.6240    1.8770 C   0  0  1  0  0  0  0  0  0  0  0  0
   -8.0530   13.5980    2.9290 N   0  0  0  0  0  0  0  0  0  0  0  0
   -6.8200   14.7620    1.0990 C   0  0  0  0  0  0  0  0  0  0  0  0
   -6.3070   14.7530   -0.2520 N   0  0  0  0  0  0  0  0  0  0  0  0
   -5.7670   14.9740    1.8520 N   0  0  0  0  0  0  0  0  0  0  0  0
   -6.6240   14.5890   -1.6210 C   0  0  0  0  0  0  0  0  0  0  0  0
   -5.0230   15.0090   -0.2380 C   0  0  0  0  0  0  0  0  0  0  0  0
   -4.6870   15.1300    1.0520 C   0  0  0  0  0  0  0  0  0  0  0  0
   -5.4700   14.9790   -2.2470 F   0  0  0  0  0  0  0  0  0  0  0  0
   -6.7160   13.2850   -1.9890 F   0  0  0  0  0  0  0  0  0  0  0  0
   -7.5780   15.3420   -2.1600 F   0  0  0  0  0  0  0  0  0  0  0  0
   -4.1440   15.1390   -1.3110 C   0  0  0  0  0  0  0  0  0  0  0  0
   -3.3730   15.3810    1.3590 C   0  0  0  0  0  0  0  0  0  0  0  0
   -2.8330   15.4110   -1.0030 C   0  0  0  0  0  0  0  0  0  0  0  0
   -2.4430   15.5280    0.3220 C   0  0  0  0  0  0  0  0  0  0  0  0
  1  2  1  0
  2  3  2  0
  2  4  1  0
  4  5  1  0
  5  6  1  6
  5  7  1  0
  7  8  1  0
  7  9  2  0
  8 10  1  0
  8 11  1  0
  9 12  1  0
 11 12  2  0
 10 13  1  0
 10 14  1  0
 10 15  1  0
 11 16  1  0
 12 17  1  0
 16 18  2  0
 17 19  2  0
 18 19  1  0
M  END
