mac-x0180-diamond-x0864_0_A
     RDKit          3D

 26 27  0  0  0  0  0  0  0  0999 V2000
   -7.7560   14.4950    1.5370 C   0  0  0  0  0  0  0  0  0  0  0  0
   -6.7860   14.7070    0.4050 C   0  0  0  0  0  0  0  0  0  0  0  0
   -7.1820   14.7770   -0.7550 O   0  0  0  0  0  0  0  0  0  0  0  0
   -5.4750   14.8110    0.8480 N   0  0  0  0  0  0  0  0  0  0  0  0
   -4.3430   14.8420    0.0080 C   0  0  0  0  0  0  0  0  0  0  0  0
   -3.0430   14.6220    0.4490 C   0  0  0  0  0  0  0  0  0  0  0  0
   -4.5620   15.1100   -1.3570 C   0  0  0  0  0  0  0  0  0  0  0  0
   -1.9680   14.6630   -0.4520 C   0  0  0  0  0  0  0  0  0  0  0  0
   -3.4940   15.1510   -2.2590 C   0  0  0  0  0  0  0  0  0  0  0  0
   -2.1890   14.9280   -1.8160 C   0  0  0  0  0  0  0  0  0  0  0  0
   -1.0170   14.9720   -2.7420 C   0  0  0  0  0  0  0  0  0  0  0  0
   -1.1310   14.8870   -3.9560 O   0  0  0  0  0  0  0  0  0  0  0  0
    0.1270   15.1460   -2.0400 O   0  0  0  0  0  0  0  0  0  0  0  0
    1.2090   14.2400   -2.3050 C   0  0  0  0  0  0  0  0  0  0  0  0
    0.9550   12.8310   -2.0300 N   0  0  0  0  0  0  0  0  0  0  0  0
    0.6920   12.0650   -3.0230 C   0  0  0  0  0  0  0  0  0  0  0  0
    0.6400   12.6030   -4.4470 C   0  0  0  0  0  0  0  0  0  0  0  0
    0.4440   10.7440   -2.8710 O   0  0  0  0  0  0  0  0  0  0  0  0
   -0.1240   11.7220   -5.3260 N   0  0  0  0  0  0  0  0  0  0  0  0
   -1.3080   11.1540   -4.8910 C   0  0  0  0  0  0  0  0  0  0  0  0
    0.5050   11.3110   -6.4890 C   0  0  0  0  0  0  0  0  0  0  0  0
    1.5390   11.8270   -6.8910 O   0  0  0  0  0  0  0  0  0  0  0  0
   -1.8760   10.1490   -5.5670 C   0  0  0  0  0  0  0  0  0  0  0  0
   -0.1130   10.1890   -7.2250 C   0  0  0  0  0  0  0  0  0  0  0  0
   -1.2490    9.6440   -6.7690 C   0  0  0  0  0  0  0  0  0  0  0  0
   -2.0760    8.2210   -7.6430 Br  0  0  0  0  0  0  0  0  0  0  0  0
  1  2  1  0
  2  3  2  0
  2  4  1  0
  4  5  1  0
  5  6  2  0
  5  7  1  0
  6  8  1  0
  7  9  2  0
  8 10  2  0
  9 10  1  0
 10 11  1  0
 11 12  2  0
 11 13  1  0
 13 14  1  0
 14 15  1  0
 15 16  2  3
 16 17  1  0
 16 18  1  0
 17 19  1  0
 19 20  1  0
 19 21  1  0
 21 22  2  0
 20 23  2  0
 21 24  1  0
 23 25  1  0
 24 25  2  0
 25 26  1  0
M  END
