mac-x0437-mac-x0326
     RDKit          3D

 24 27  0  0  0  0  0  0  0  0999 V2000
    2.7290   13.0770   -2.5140 O   0  0  0  0  0  0  0  0  0  0  0  0
    1.8130   12.4570   -3.2620 C   0  0  0  0  0  0  0  0  0  0  0  0
    1.3030   11.4170   -2.8770 O   0  0  0  0  0  0  0  0  0  0  0  0
    1.4550   13.1690   -4.5310 C   0  0  0  0  0  0  0  0  0  0  0  0
   -0.0390   13.0270   -4.5110 C   0  0  1  0  0  0  0  0  0  0  0  0
   -0.7300   11.9520   -5.2550 N   0  0  0  0  0  0  0  0  0  0  0  0
   -0.9160   13.7130   -3.4570 C   0  0  0  0  0  0  0  0  0  0  0  0
   -1.9840   11.5480   -4.9000 C   0  0  0  0  0  0  0  0  0  0  0  0
   -0.3400   11.1520   -6.3390 C   0  0  0  0  0  0  0  0  0  0  0  0
   -2.1480   14.0630   -3.7280 N   0  0  0  0  0  0  0  0  0  0  0  0
   -0.4330   14.0220   -1.8190 S   0  0  0  0  0  0  0  0  0  0  0  0
   -2.4340   10.5700   -5.6340 N   0  0  0  0  0  0  0  0  0  0  0  0
   -1.4400   10.3020   -6.5240 C   0  0  0  0  0  0  0  0  0  0  0  0
    0.7960   11.0470   -7.1610 C   0  0  0  0  0  0  0  0  0  0  0  0
   -2.7830   14.5320   -2.6000 C   0  0  0  0  0  0  0  0  0  0  0  0
   -2.0170   14.5790   -1.4380 C   0  0  0  0  0  0  0  0  0  0  0  0
   -1.4340    9.3220   -7.5230 C   0  0  0  0  0  0  0  0  0  0  0  0
    0.7780   10.0540   -8.1620 C   0  0  0  0  0  0  0  0  0  0  0  0
   -4.1220   14.9320   -2.5550 C   0  0  0  0  0  0  0  0  0  0  0  0
   -2.5530   15.0150   -0.2120 C   0  0  0  0  0  0  0  0  0  0  0  0
   -0.3120    9.2060   -8.3400 C   0  0  0  0  0  0  0  0  0  0  0  0
   -4.6620   15.3500   -1.3500 C   0  0  0  0  0  0  0  0  0  0  0  0
   -3.9010   15.4020   -0.1860 C   0  0  0  0  0  0  0  0  0  0  0  0
   -6.3210   15.7940   -1.3170 Cl  0  0  0  0  0  0  0  0  0  0  0  0
  1  2  1  0
  2  3  2  0
  2  4  1  0
  5  4  1  1
  5  6  1  0
  5  7  1  0
  6  8  1  0
  6  9  1  0
  7 10  2  0
  7 11  1  0
  8 12  2  0
  9 13  2  0
 12 13  1  0
  9 14  1  0
 10 15  1  0
 11 16  1  0
 15 16  2  0
 13 17  1  0
 14 18  2  0
 15 19  1  0
 16 20  1  0
 17 21  2  0
 18 21  1  0
 19 22  2  0
 20 23  2  0
 22 23  1  0
 22 24  1  0
M  END
