mac-x0354-mac-x0180
     RDKit          3D

 30 32  0  0  0  0  0  0  0  0999 V2000
    0.5530   11.1910   -8.2710 C   0  0  0  0  0  0  0  0  0  0  0  0
    0.8750   11.6000   -6.9170 N   0  0  0  0  0  0  0  0  0  0  0  0
    1.8500   12.4850   -6.6790 N   0  0  0  0  0  0  0  0  0  0  0  0
    0.2740   11.1650   -5.7840 C   0  0  0  0  0  0  0  0  0  0  0  0
    1.8810   12.6180   -5.3670 C   0  0  0  0  0  0  0  0  0  0  0  0
    0.9250   11.8140   -4.7240 C   0  0  0  0  0  0  0  0  0  0  0  0
   -0.8050   10.1980   -5.8410 C   0  0  0  0  0  0  0  0  0  0  0  0
    0.6960   11.6820   -3.2970 C   0  0  0  0  0  0  0  0  0  0  0  0
   -0.5880    8.9570   -6.4540 C   0  0  0  0  0  0  0  0  0  0  0  0
   -2.0520   10.4920   -5.3020 C   0  0  0  0  0  0  0  0  0  0  0  0
    1.1440   12.4220   -2.3590 N   0  0  0  0  0  0  0  0  0  0  0  0
   -0.0600   10.6170   -2.9210 O   0  0  0  0  0  0  0  0  0  0  0  0
   -1.6120    8.0200   -6.5230 C   0  0  0  0  0  0  0  0  0  0  0  0
   -3.0780    9.5530   -5.3710 C   0  0  0  0  0  0  0  0  0  0  0  0
    1.9920   13.5970   -2.5210 C   0  0  0  0  0  0  0  0  0  0  0  0
   -2.8570    8.3190   -5.9810 C   0  0  0  0  0  0  0  0  0  0  0  0
    1.1910   14.7280   -3.1590 C   0  0  0  0  0  0  0  0  0  0  0  0
    0.0880   15.0380   -2.2880 O   0  0  0  0  0  0  0  0  0  0  0  0
   -1.1260   14.9830   -2.8850 C   0  0  0  0  0  0  0  0  0  0  0  0
   -1.3400   14.9970   -4.0820 O   0  0  0  0  0  0  0  0  0  0  0  0
   -2.2090   14.9240   -1.8590 C   0  0  0  0  0  0  0  0  0  0  0  0
   -1.9640   14.6520   -0.5060 C   0  0  0  0  0  0  0  0  0  0  0  0
   -3.5190   15.1640   -2.2860 C   0  0  0  0  0  0  0  0  0  0  0  0
   -3.0260   14.6180    0.4110 C   0  0  0  0  0  0  0  0  0  0  0  0
   -4.5730   15.1280   -1.3680 C   0  0  0  0  0  0  0  0  0  0  0  0
   -4.3340   14.8530   -0.0110 C   0  0  0  0  0  0  0  0  0  0  0  0
   -5.4510   14.8240    0.8530 N   0  0  0  0  0  0  0  0  0  0  0  0
   -6.7640   14.7020    0.4170 C   0  0  0  0  0  0  0  0  0  0  0  0
   -7.7440   14.4930    1.5440 C   0  0  0  0  0  0  0  0  0  0  0  0
   -7.1580   14.7570   -0.7440 O   0  0  0  0  0  0  0  0  0  0  0  0
  1  2  1  0
  2  3  1  0
  2  4  1  0
  3  5  2  0
  4  6  2  0
  5  6  1  0
  4  7  1  0
  6  8  1  0
  7  9  2  0
  7 10  1  0
  8 11  2  3
  8 12  1  0
  9 13  1  0
 10 14  2  0
 11 15  1  0
 13 16  2  0
 14 16  1  0
 15 17  1  0
 17 18  1  0
 18 19  1  0
 19 20  2  0
 19 21  1  0
 21 22  2  0
 21 23  1  0
 22 24  1  0
 23 25  2  0
 24 26  2  0
 25 26  1  0
 26 27  1  0
 27 28  1  0
 28 29  1  0
 28 30  2  0
M  END
