mac-x0439-mac-x0371
     RDKit          3D

 18 20  0  0  0  0  0  0  0  0999 V2000
   -3.4260   15.5380   -4.6840 Cl  0  0  0  0  0  0  0  0  0  0  0  0
   -1.7810   15.8010   -5.3180 C   0  0  2  0  0  0  0  0  0  0  0  0
   -0.7800   15.6550   -4.2160 C   0  0  1  0  0  0  0  0  0  0  0  0
   -1.7680   17.1820   -5.9660 C   0  0  0  0  0  0  0  0  0  0  0  0
   -0.3650   14.3370   -3.4940 C   0  0  1  0  0  0  0  0  0  0  0  0
    0.4600   16.5570   -4.2680 C   0  0  1  0  0  0  0  0  0  0  0  0
   -0.6650   17.9570   -6.0340 C   0  0  0  0  0  0  0  0  0  0  0  0
   -1.6690   14.2250   -2.2390 Cl  0  0  0  0  0  0  0  0  0  0  0  0
   -0.3240   12.8730   -4.0250 C   0  0  0  0  0  0  0  0  0  0  0  0
    1.0040   14.8390   -2.9520 C   0  0  2  0  0  0  0  0  0  0  0  0
    1.4890   15.5350   -4.1170 N   0  0  0  0  0  0  0  0  0  0  0  0
    0.6440   17.5100   -5.4690 C   0  0  0  0  0  0  0  0  0  0  0  0
    2.0050   13.7120   -2.7440 C   0  0  1  0  0  0  0  0  0  0  0  0
    1.4420   14.1930   -5.2500 Cl  0  0  0  0  0  0  0  0  0  0  0  0
    0.3490   11.9430   -3.0140 C   0  0  0  0  0  0  0  0  0  0  0  0
    3.0580   14.1030   -1.8910 O   0  0  0  0  0  0  0  0  0  0  0  0
    1.3310   12.5450   -2.2630 N   0  0  0  0  0  0  0  0  0  0  0  0
    0.0500   10.7520   -2.8520 O   0  0  0  0  0  0  0  0  0  0  0  0
  2  1  1  1
  3  2  1  6
  2  4  1  0
  3  5  1  0
  3  6  1  0
  4  7  2  0
  5  8  1  1
  5  9  1  0
  5 10  1  0
  6 11  1  0
 10 11  1  6
  6 12  1  6
  7 12  1  0
 10 13  1  0
 11 14  1  0
  9 15  1  0
 13 16  1  1
 13 17  1  0
 15 17  1  0
 15 18  2  0
M  END
