mac-x0358-diamond-x0438_0_A
     RDKit          3D

 27 29  0  0  0  0  0  0  0  0999 V2000
    1.8860   12.8510   -2.6010 O   0  0  0  0  0  0  0  0  0  0  0  0
    1.1750   12.0940   -3.4630 C   0  0  0  0  0  0  0  0  0  0  0  0
    0.6320   11.0850   -3.0390 O   0  0  0  0  0  0  0  0  0  0  0  0
    1.1320   12.6470   -4.8890 C   0  0  0  0  0  0  0  0  0  0  0  0
   -0.2320   13.2110   -4.9560 C   0  0  0  0  0  0  0  0  0  0  0  0
   -1.3440   12.4010   -5.2160 C   0  0  0  0  0  0  0  0  0  0  0  0
   -0.3800   14.5630   -4.7140 C   0  0  0  0  0  0  0  0  0  0  0  0
   -1.1580   11.0730   -5.4660 O   0  0  0  0  0  0  0  0  0  0  0  0
   -2.6230   12.9290   -5.1950 C   0  0  0  0  0  0  0  0  0  0  0  0
   -1.6340   15.0880   -4.6860 C   0  0  0  0  0  0  0  0  0  0  0  0
   -2.7390   14.2730   -4.8980 C   0  0  0  0  0  0  0  0  0  0  0  0
   -3.9940   14.9860   -4.7130 C   0  0  0  0  0  0  0  0  0  0  0  0
   -3.5060   15.6100   -3.3720 C   0  0  0  0  0  0  0  0  0  0  0  0
   -4.1520   15.2770   -2.0310 C   0  0  0  0  0  0  0  0  0  0  0  0
   -5.5340   15.1210   -1.9640 C   0  0  0  0  0  0  0  0  0  0  0  0
   -3.3750   15.1220   -0.8570 C   0  0  0  0  0  0  0  0  0  0  0  0
   -6.0870   14.8070   -0.7340 C   0  0  0  0  0  0  0  0  0  0  0  0
   -3.9630   14.8100    0.3850 C   0  0  0  0  0  0  0  0  0  0  0  0
   -7.3880   14.5840   -0.3750 N   0  0  0  0  0  0  0  0  0  0  0  0
   -5.3580   14.6480    0.4310 C   0  0  0  0  0  0  0  0  0  0  0  0
   -7.4170   14.2950    0.9650 C   0  0  0  0  0  0  0  0  0  0  0  0
   -6.2000   14.3370    1.4750 N   0  0  0  0  0  0  0  0  0  0  0  0
   -8.6750   13.9710    1.6830 C   0  0  0  0  0  0  0  0  0  0  0  0
   -9.3400   15.3420    2.6090 S   0  0  0  0  0  0  0  0  0  0  0  0
   -8.1820   15.6280    3.9380 C   0  0  0  0  0  0  0  0  0  0  0  0
  -10.5710   14.8640    3.2140 O   0  0  0  0  0  0  0  0  0  0  0  0
   -9.4040   16.5030    1.7470 O   0  0  0  0  0  0  0  0  0  0  0  0
  1  2  1  0
  2  3  2  0
  2  4  1  0
  4  5  1  0
  5  6  2  0
  5  7  1  0
  6  8  1  0
  6  9  1  0
  7 10  2  0
  9 11  2  0
 10 11  1  0
 11 12  1  0
 12 13  1  0
 13 14  1  0
 14 15  2  0
 14 16  1  0
 15 17  1  0
 16 18  2  0
 17 19  1  0
 17 20  2  0
 18 20  1  0
 19 21  1  0
 20 22  1  0
 21 22  2  0
 21 23  1  0
 24 23  1  0
 24 25  1  0
 24 26  2  0
 24 27  2  0
M  END
