mac-x0159-mac-x0472
     RDKit          3D

 32 36  0  0  0  0  0  0  0  0999 V2000
   -3.4320   12.8330   -0.5790 N   0  0  0  0  0  0  0  0  0  0  0  0
   -2.2250   12.7170   -1.3820 C   0  0  2  0  0  0  0  0  0  0  0  0
   -0.9470   13.3630   -0.8010 C   0  0  1  0  0  0  0  0  0  0  0  0
   -2.6370   13.1830   -2.6680 N   0  0  0  0  0  0  0  0  0  0  0  0
   -2.4730   14.5590   -2.9690 C   0  0  1  0  0  0  0  0  0  0  0  0
   -0.9050   14.7720   -1.2520 C   0  0  2  0  0  0  0  0  0  0  0  0
   -0.8180   13.6020    0.6680 N   0  0  0  0  0  0  0  0  0  0  0  0
   -3.5590   15.0840   -2.2060 N   0  0  0  0  0  0  0  0  0  0  0  0
   -1.2030   15.0290   -2.6140 N   0  0  0  0  0  0  0  0  0  0  0  0
    0.3080   15.1830   -0.6020 N   0  0  0  0  0  0  0  0  0  0  0  0
   -0.1680   14.9120    0.7470 C   0  0  0  0  0  0  0  0  0  0  0  0
   -0.1900   14.9340   -3.6290 C   0  0  0  0  0  0  0  0  0  0  0  0
   -5.0550   14.6010   -2.8640 S   0  0  0  0  0  0  0  0  0  0  0  0
   -3.5910   15.1660   -0.7930 C   0  0  0  0  0  0  0  0  0  0  0  0
   -6.0660   15.3970   -2.2060 O   0  0  0  0  0  0  0  0  0  0  0  0
   -4.9180   14.6460   -4.3110 O   0  0  0  0  0  0  0  0  0  0  0  0
   -0.0970   16.1740   -4.4490 C   0  0  0  0  0  0  0  0  0  0  0  0
   -2.6350   14.9520    0.1060 N   0  0  0  0  0  0  0  0  0  0  0  0
   -5.0520   15.5990    0.0130 S   0  0  0  0  0  0  0  0  0  0  0  0
   -5.3200   12.8710   -2.4830 C   0  0  0  0  0  0  0  0  0  0  0  0
    1.0360   16.9050   -4.5300 C   0  0  0  0  0  0  0  0  0  0  0  0
   -1.1660   16.6830   -5.1900 N   0  0  0  0  0  0  0  0  0  0  0  0
   -4.2520   15.4580    1.5150 C   0  0  0  0  0  0  0  0  0  0  0  0
   -2.9970   15.1160    1.4240 N   0  0  0  0  0  0  0  0  0  0  0  0
   -4.6690   11.8720   -3.2210 C   0  0  0  0  0  0  0  0  0  0  0  0
   -6.1870   12.5300   -1.4410 C   0  0  0  0  0  0  0  0  0  0  0  0
   -0.7880   17.7850   -5.8040 C   0  0  0  0  0  0  0  0  0  0  0  0
    0.8380   18.2580   -5.5420 S   0  0  0  0  0  0  0  0  0  0  0  0
   -4.8940   10.5300   -2.9130 C   0  0  0  0  0  0  0  0  0  0  0  0
   -6.4070   11.1860   -1.1420 C   0  0  0  0  0  0  0  0  0  0  0  0
   -1.6590   18.6110   -6.6790 C   0  0  0  0  0  0  0  0  0  0  0  0
   -5.7630   10.1910   -1.8780 C   0  0  0  0  0  0  0  0  0  0  0  0
  2  1  1  1
  2  3  1  0
  2  4  1  0
  4  5  1  0
  3  6  1  0
  3  7  1  1
  5  8  1  1
  5  9  1  0
  6  9  1  0
  6 10  1  6
  7 11  1  0
 10 11  1  0
  9 12  1  0
 13  8  1  0
  8 14  1  0
 13 15  2  0
 13 16  2  0
 12 17  1  0
 14 18  2  0
 14 19  1  0
 13 20  1  0
 17 21  2  0
 17 22  1  0
 19 23  1  0
 18 24  1  0
 23 24  2  0
 20 25  2  0
 20 26  1  0
 22 27  2  0
 21 28  1  0
 27 28  1  0
 25 29  1  0
 26 30  2  0
 27 31  1  0
 29 32  2  0
 30 32  1  0
M  END
