mac-x0213-diamond-x0524_0_A
     RDKit          3D

 32 35  0  0  0  0  0  0  0  0999 V2000
   -0.7520   12.0650   -3.2010 O   0  0  0  0  0  0  0  0  0  0  0  0
    0.3500   12.9570   -3.3590 C   0  0  0  0  0  0  0  0  0  0  0  0
    0.9080   13.1890   -2.0690 O   0  0  0  0  0  0  0  0  0  0  0  0
    1.3150   12.4030   -4.3750 C   0  0  0  0  0  0  0  0  0  0  0  0
   -0.1240   14.2450   -3.9820 C   0  0  0  0  0  0  0  0  0  0  0  0
    0.6970   11.5010   -5.4500 C   0  0  0  0  0  0  0  0  0  0  0  0
   -1.5750   14.6760   -3.8290 C   0  0  0  0  0  0  0  0  0  0  0  0
    0.7220   15.4820   -3.7020 C   0  0  0  0  0  0  0  0  0  0  0  0
   -0.5060   11.9220   -6.2770 C   0  0  0  0  0  0  0  0  0  0  0  0
   -1.4250   15.9670   -4.5710 C   0  0  0  0  0  0  0  0  0  0  0  0
   -0.0980   16.4270   -4.4910 C   0  0  0  0  0  0  0  0  0  0  0  0
   -0.3960   10.9490   -7.3730 N   0  0  0  0  0  0  0  0  0  0  0  0
   -2.3790   16.6750   -5.2610 C   0  0  0  0  0  0  0  0  0  0  0  0
    0.2950   17.6020   -5.0950 C   0  0  0  0  0  0  0  0  0  0  0  0
   -0.7840    9.7130   -7.2680 C   0  0  0  0  0  0  0  0  0  0  0  0
   -1.9890   17.8700   -5.8790 C   0  0  0  0  0  0  0  0  0  0  0  0
   -0.6640   18.3240   -5.7930 C   0  0  0  0  0  0  0  0  0  0  0  0
   -0.6070    8.7910   -8.2750 N   0  0  0  0  0  0  0  0  0  0  0  0
   -1.4500    9.1530   -6.0150 C   0  0  0  0  0  0  0  0  0  0  0  0
    0.4880    8.7030   -9.1560 C   0  0  0  0  0  0  0  0  0  0  0  0
    1.6300    7.9180   -8.9530 C   0  0  0  0  0  0  0  0  0  0  0  0
    0.4290    9.4640  -10.3260 C   0  0  0  0  0  0  0  0  0  0  0  0
    2.6730    7.9050   -9.8960 C   0  0  0  0  0  0  0  0  0  0  0  0
    1.4630    9.4500  -11.2630 C   0  0  0  0  0  0  0  0  0  0  0  0
    2.6010    8.6740  -11.0660 C   0  0  0  0  0  0  0  0  0  0  0  0
    3.6540    8.6490  -11.9910 N   0  0  0  0  0  0  0  0  0  0  0  0
    3.9840    9.4990  -13.0620 C   0  0  0  0  0  0  0  0  0  0  0  0
    3.2360   10.6720  -13.2750 C   0  0  0  0  0  0  0  0  0  0  0  0
    5.0360    9.2310  -13.9400 C   0  0  0  0  0  0  0  0  0  0  0  0
    3.5350   11.5390  -14.3240 C   0  0  0  0  0  0  0  0  0  0  0  0
    5.3360   10.0980  -14.9920 C   0  0  0  0  0  0  0  0  0  0  0  0
    4.5850   11.2530  -15.1840 C   0  0  0  0  0  0  0  0  0  0  0  0
  2  1  1  0
  2  3  1  0
  2  4  1  0
  2  5  1  0
  4  6  1  0
  5  7  1  0
  5  8  1  0
  6  9  1  0
  7 10  1  0
  8 11  1  0
 10 11  2  0
  9 12  1  0
 10 13  1  0
 11 14  1  0
 12 15  2  3
 13 16  2  0
 14 17  2  0
 16 17  1  0
 15 18  1  0
 15 19  1  0
 18 20  1  0
 20 21  2  0
 20 22  1  0
 21 23  1  0
 22 24  2  0
 23 25  2  0
 24 25  1  0
 25 26  1  0
 26 27  1  0
 27 28  2  0
 27 29  1  0
 28 30  1  0
 29 31  2  0
 30 32  2  0
 31 32  1  0
M  END
