mac-x0328-diamond-x0628_0_A
     RDKit          3D

 23 24  0  0  0  0  0  0  0  0999 V2000
   -1.8470   15.7450   -3.7180 O   0  0  0  0  0  0  0  0  0  0  0  0
   -2.1820   14.6010   -2.9700 C   0  0  0  0  0  0  0  0  0  0  0  0
   -1.0890   14.3790   -2.1020 O   0  0  0  0  0  0  0  0  0  0  0  0
   -2.3820   13.5090   -4.0340 C   0  0  0  0  0  0  0  0  0  0  0  0
   -3.4810   14.8110   -2.2110 C   0  0  0  0  0  0  0  0  0  0  0  0
   -1.9270   12.1050   -3.6670 C   0  0  0  0  0  0  0  0  0  0  0  0
   -3.5510   14.8310   -0.8020 C   0  0  0  0  0  0  0  0  0  0  0  0
   -4.6650   14.9810   -2.9340 C   0  0  0  0  0  0  0  0  0  0  0  0
   -4.7810   15.0080   -0.1550 C   0  0  0  0  0  0  0  0  0  0  0  0
   -5.8860   15.1570   -2.2920 C   0  0  0  0  0  0  0  0  0  0  0  0
   -1.3230   11.4390   -4.8630 C   0  0  0  0  0  0  0  0  0  0  0  0
   -5.9350   15.1640   -0.9140 C   0  0  0  0  0  0  0  0  0  0  0  0
   -1.7290   10.3170   -5.4200 N   0  0  0  0  0  0  0  0  0  0  0  0
   -0.2410   11.9140   -5.5580 N   0  0  0  0  0  0  0  0  0  0  0  0
   -7.1250   15.3190   -0.2720 O   0  0  0  0  0  0  0  0  0  0  0  0
    0.5440   13.1130   -5.3270 C   0  0  0  0  0  0  0  0  0  0  0  0
   -0.8570   10.1370   -6.4570 C   0  0  0  0  0  0  0  0  0  0  0  0
    0.0720   11.0900   -6.5850 N   0  0  0  0  0  0  0  0  0  0  0  0
   -0.9370    8.9740   -7.3650 C   0  0  0  0  0  0  0  0  0  0  0  0
    1.6960   12.9420   -4.3460 C   0  0  0  0  0  0  0  0  0  0  0  0
    1.2790   12.2820   -3.0490 C   0  0  0  0  0  0  0  0  0  0  0  0
    0.5780   11.2790   -2.9780 O   0  0  0  0  0  0  0  0  0  0  0  0
    1.7480   12.9060   -1.9550 O   0  0  0  0  0  0  0  0  0  0  0  0
  2  1  1  0
  2  3  1  0
  2  4  1  0
  2  5  1  0
  4  6  1  0
  5  7  2  0
  5  8  1  0
  7  9  1  0
  8 10  2  0
  6 11  1  0
  9 12  2  0
 10 12  1  0
 11 13  2  0
 11 14  1  0
 12 15  1  0
 14 16  1  0
 13 17  1  0
 14 18  1  0
 17 18  2  0
 17 19  1  0
 16 20  1  0
 20 21  1  0
 21 22  2  0
 21 23  1  0
M  END
