mac-x0451-mac-x0436
     RDKit          3D

 28 31  0  0  0  0  0  0  0  0999 V2000
   -6.6040   14.7980    2.6530 N   0  0  0  0  0  0  0  0  0  0  0  0
   -5.7800   14.8240    1.5970 C   0  0  0  0  0  0  0  0  0  0  0  0
   -6.2310   14.9690    0.3860 N   0  0  0  0  0  0  0  0  0  0  0  0
   -4.0740   14.6780    1.7360 S   0  0  0  0  0  0  0  0  0  0  0  0
   -5.1890   14.9740   -0.5060 C   0  0  0  0  0  0  0  0  0  0  0  0
   -3.9190   14.8190    0.0420 C   0  0  0  0  0  0  0  0  0  0  0  0
   -5.3120   15.1200   -1.8900 C   0  0  0  0  0  0  0  0  0  0  0  0
   -2.7590   14.7950   -0.7380 C   0  0  0  0  0  0  0  0  0  0  0  0
   -4.1680   15.0980   -2.6810 C   0  0  0  0  0  0  0  0  0  0  0  0
   -2.9060   14.9350   -2.1190 C   0  0  0  0  0  0  0  0  0  0  0  0
   -1.8930   14.9310   -3.0360 O   0  0  0  0  0  0  0  0  0  0  0  0
   -1.2510   13.6760   -3.3500 C   0  0  0  0  0  0  0  0  0  0  0  0
   -2.0500   12.5050   -3.7560 N   0  0  0  0  0  0  0  0  0  0  0  0
   -1.6920   11.7280   -4.7460 C   0  0  0  0  0  0  0  0  0  0  0  0
   -0.3850   12.0490   -5.5250 C   0  0  0  0  0  0  0  0  0  0  0  0
   -2.3810   10.6120   -5.1810 N   0  0  0  0  0  0  0  0  0  0  0  0
    0.4150   13.2940   -5.2090 C   0  0  0  0  0  0  0  0  0  0  0  0
   -1.8590    9.7680   -6.1810 C   0  0  0  0  0  0  0  0  0  0  0  0
    0.0620   11.2690   -6.4720 N   0  0  0  0  0  0  0  0  0  0  0  0
    1.6390   12.9610   -4.3600 C   0  0  0  0  0  0  0  0  0  0  0  0
   -0.6490   10.1090   -6.8090 C   0  0  0  0  0  0  0  0  0  0  0  0
   -2.5290    8.5990   -6.5540 C   0  0  0  0  0  0  0  0  0  0  0  0
    1.2890   12.4310   -2.9900 C   0  0  0  0  0  0  0  0  0  0  0  0
   -0.1260    9.2750   -7.8030 C   0  0  0  0  0  0  0  0  0  0  0  0
   -1.9980    7.7720   -7.5500 C   0  0  0  0  0  0  0  0  0  0  0  0
    0.7380   11.2020   -3.0130 O   0  0  0  0  0  0  0  0  0  0  0  0
    1.4580   12.9840   -1.9230 O   0  0  0  0  0  0  0  0  0  0  0  0
   -0.7970    8.1120   -8.1730 C   0  0  0  0  0  0  0  0  0  0  0  0
  1  2  1  0
  2  3  2  0
  2  4  1  0
  3  5  1  0
  4  6  1  0
  5  6  2  0
  5  7  1  0
  6  8  1  0
  7  9  2  0
  8 10  2  0
  9 10  1  0
 10 11  1  0
 11 12  1  0
 12 13  1  0
 13 14  2  3
 14 15  1  0
 14 16  1  0
 15 17  1  0
 16 18  1  0
 15 19  2  0
 17 20  1  0
 18 21  2  0
 19 21  1  0
 18 22  1  0
 20 23  1  0
 21 24  1  0
 22 25  2  0
 23 26  1  0
 23 27  2  0
 24 28  2  0
 25 28  1  0
M  END
