mac-x0139-mac-x0306
     RDKit          3D

 20 22  0  0  0  0  0  0  0  0999 V2000
   -2.3750   14.9810   -3.3370 C   0  0  0  0  0  0  0  0  0  0  0  0
   -1.3130   14.5880   -2.4170 N   0  0  0  0  0  0  0  0  0  0  0  0
    0.0570   14.8280   -2.9220 C   0  0  0  0  0  0  0  0  0  0  0  0
   -1.5020   14.7120   -1.0420 C   0  0  0  0  0  0  0  0  0  0  0  0
    0.5220   13.7140   -3.8530 C   0  0  0  0  0  0  0  0  0  0  0  0
   -2.7300   14.7970   -0.4070 C   0  0  0  0  0  0  0  0  0  0  0  0
   -0.3860   14.7550   -0.2800 N   0  0  0  0  0  0  0  0  0  0  0  0
    0.9550   12.5170   -3.0630 C   0  0  0  0  0  0  0  0  0  0  0  0
   -2.7180   14.9460    0.9640 C   0  0  0  0  0  0  0  0  0  0  0  0
   -0.5020   14.8850    1.0490 C   0  0  0  0  0  0  0  0  0  0  0  0
   -4.1520   14.7650   -0.8860 C   0  0  0  0  0  0  0  0  0  0  0  0
    1.6500   12.5360   -2.0720 O   0  0  0  0  0  0  0  0  0  0  0  0
    0.5080   11.3430   -3.5340 O   0  0  0  0  0  0  0  0  0  0  0  0
   -1.6410   14.9910    1.7370 N   0  0  0  0  0  0  0  0  0  0  0  0
   -4.0350   15.0580    1.4840 N   0  0  0  0  0  0  0  0  0  0  0  0
   -4.9400   14.6030    0.4440 C   0  0  0  0  0  0  0  0  0  0  0  0
   -5.4230   13.2990    0.8560 N   0  0  0  0  0  0  0  0  0  0  0  0
   -6.2670   15.1990    0.2970 N   0  0  0  0  0  0  0  0  0  0  0  0
   -7.1780   14.5930    1.1560 C   0  0  0  0  0  0  0  0  0  0  0  0
   -6.6550   13.4370    1.5110 C   0  0  0  0  0  0  0  0  0  0  0  0
  1  2  1  0
  2  3  1  0
  2  4  1  0
  3  5  1  0
  4  6  2  0
  4  7  1  0
  5  8  1  0
  6  9  1  0
  7 10  2  0
  6 11  1  0
  8 12  2  0
  8 13  1  0
  9 14  2  0
 10 14  1  0
  9 15  1  0
 11 16  1  0
 16 15  1  0
 16 17  1  0
 16 18  1  0
 18 19  1  0
 17 20  1  0
 19 20  2  0
M  END
