mac-x0301-diamond-x0662_0_A
     RDKit          3D

 31 34  0  0  0  0  0  0  0  0999 V2000
    0.3660   14.6290   -2.7590 O   0  0  0  0  0  0  0  0  0  0  0  0
   -0.9240   14.3390   -3.0100 C   0  0  0  0  0  0  0  0  0  0  0  0
   -1.3340   13.8130   -4.0820 N   0  0  0  0  0  0  0  0  0  0  0  0
   -1.7740   14.6890   -1.8870 C   0  0  0  0  0  0  0  0  0  0  0  0
   -0.2530   13.5350   -4.9960 C   0  0  0  0  0  0  0  0  0  0  0  0
   -1.2760   14.5840   -0.6110 C   0  0  0  0  0  0  0  0  0  0  0  0
   -3.0920   15.1300   -2.0730 C   0  0  0  0  0  0  0  0  0  0  0  0
   -0.6180   12.4560   -5.8790 N   0  0  0  0  0  0  0  0  0  0  0  0
   -2.0490   14.9060    0.4800 C   0  0  0  0  0  0  0  0  0  0  0  0
   -3.8800   15.4570   -0.9530 C   0  0  0  0  0  0  0  0  0  0  0  0
   -0.0370   14.1720   -0.2560 O   0  0  0  0  0  0  0  0  0  0  0  0
    0.3030   11.7280   -6.3590 C   0  0  0  0  0  0  0  0  0  0  0  0
   -3.3530   15.3450    0.3440 C   0  0  0  0  0  0  0  0  0  0  0  0
   -1.3830   14.7450    1.6550 O   0  0  0  0  0  0  0  0  0  0  0  0
   -0.0670   14.4360    1.1530 C   0  0  0  0  0  0  0  0  0  0  0  0
    1.5210   11.8100   -6.1290 O   0  0  0  0  0  0  0  0  0  0  0  0
    0.0970   10.6420   -7.3670 C   0  0  0  0  0  0  0  0  0  0  0  0
   -0.7430    9.5450   -7.1630 C   0  0  0  0  0  0  0  0  0  0  0  0
    0.7850   10.7790   -8.5650 C   0  0  0  0  0  0  0  0  0  0  0  0
   -0.8770    8.6010   -8.1890 C   0  0  0  0  0  0  0  0  0  0  0  0
    0.6630    9.8680   -9.5890 C   0  0  0  0  0  0  0  0  0  0  0  0
    1.3440   10.0110  -10.8150 N   0  0  0  0  0  0  0  0  0  0  0  0
   -0.1780    8.7650   -9.3950 C   0  0  0  0  0  0  0  0  0  0  0  0
    2.3030    9.2000  -11.3670 C   0  0  0  0  0  0  0  0  0  0  0  0
    2.6260    8.0850  -10.9770 O   0  0  0  0  0  0  0  0  0  0  0  0
    2.9780    9.8090  -12.5410 C   0  0  0  0  0  0  0  0  0  0  0  0
    2.7490   11.0880  -13.1280 C   0  0  0  0  0  0  0  0  0  0  0  0
    3.9520    9.1490  -13.2010 N   0  0  0  0  0  0  0  0  0  0  0  0
    4.3250    9.9960  -14.1740 N   0  0  0  0  0  0  0  0  0  0  0  0
    3.6350   11.1720  -14.1780 C   0  0  0  0  0  0  0  0  0  0  0  0
    5.3740    9.5950  -15.0800 C   0  0  0  0  0  0  0  0  0  0  0  0
  1  2  1  0
  2  3  2  3
  2  4  1  0
  3  5  1  0
  4  6  1  0
  4  7  2  0
  5  8  1  0
  6  9  2  0
  7 10  1  0
  6 11  1  0
  8 12  2  3
  9 13  1  0
 10 13  2  0
  9 14  1  0
 11 15  1  0
 14 15  1  0
 12 16  1  0
 12 17  1  0
 17 18  2  0
 17 19  1  0
 18 20  1  0
 19 21  2  0
 21 22  1  0
 20 23  2  0
 21 23  1  0
 22 24  1  0
 24 25  2  0
 24 26  1  0
 26 27  1  0
 26 28  2  0
 28 29  1  0
 27 30  2  0
 29 30  1  0
 29 31  1  0
M  CHG  1  16  -1
M  END
