mac-x0303-diamond-x0852_0_B
     RDKit          3D

 22 24  0  0  0  0  0  0  0  0999 V2000
   -8.5310   12.8930    2.5090 N   0  0  0  0  0  0  0  0  0  0  0  0
   -8.8440   14.0610    1.4000 S   0  0  0  0  0  0  0  0  0  0  0  0
  -10.0990   14.7140    0.8530 O   0  0  0  0  0  0  0  0  0  0  0  0
   -7.2870   14.4830    0.5990 C   0  0  0  0  0  0  0  0  0  0  0  0
   -8.9620   15.0940    2.7840 C   0  0  0  0  0  0  0  0  0  0  0  0
   -7.1740   14.8370   -0.6440 N   0  0  0  0  0  0  0  0  0  0  0  0
   -6.0810   14.4440    1.1790 N   0  0  0  0  0  0  0  0  0  0  0  0
   -8.2550   14.8330    3.9250 C   0  0  0  0  0  0  0  0  0  0  0  0
   -9.7900   16.2380    2.8730 C   0  0  0  0  0  0  0  0  0  0  0  0
   -5.8650   15.0080   -0.8910 C   0  0  0  0  0  0  0  0  0  0  0  0
   -5.1610   14.7580    0.2630 C   0  0  0  0  0  0  0  0  0  0  0  0
  -10.8460   16.7810    1.3320 Br  0  0  0  0  0  0  0  0  0  0  0  0
   -8.3550   15.5780    5.0550 C   0  0  0  0  0  0  0  0  0  0  0  0
   -9.9130   17.0060    4.0050 C   0  0  0  0  0  0  0  0  0  0  0  0
   -5.2080   15.3560   -2.0330 C   0  0  0  0  0  0  0  0  0  0  0  0
   -3.8040   14.8660    0.2310 C   0  0  0  0  0  0  0  0  0  0  0  0
   -7.5680   15.1810    6.1570 O   0  0  0  0  0  0  0  0  0  0  0  0
   -9.1980   16.6410    5.0770 C   0  0  0  0  0  0  0  0  0  0  0  0
   -3.8270   15.4590   -2.0670 C   0  0  0  0  0  0  0  0  0  0  0  0
   -3.1190   15.2050   -0.9130 C   0  0  0  0  0  0  0  0  0  0  0  0
   -9.3530   17.3930    6.2620 C   0  0  0  0  0  0  0  0  0  0  0  0
   -9.5650   17.9460    7.2310 N   0  0  0  0  0  0  0  0  0  0  0  0
  1  2  1  0
  2  3  2  0
  2  4  1  0
  2  5  1  0
  4  6  1  0
  4  7  2  0
  5  8  2  0
  5  9  1  0
  6 10  1  0
  7 11  1  0
 10 11  2  0
  9 12  1  0
  8 13  1  0
  9 14  2  0
 10 15  1  0
 11 16  1  0
 13 17  1  0
 13 18  2  0
 14 18  1  0
 15 19  2  0
 16 20  2  0
 19 20  1  0
 18 21  1  0
 21 22  3  0
M  END
