mac-x0379-mac-x0161
     RDKit          3D

 20 22  0  0  0  0  0  0  0  0999 V2000
   -4.4980   15.2760    0.6390 C   0  0  0  0  0  0  0  0  0  0  0  0
   -3.7990   15.2530   -0.6830 C   0  0  0  0  0  0  0  0  0  0  0  0
   -4.4560   15.4540   -1.7930 N   0  0  0  0  0  0  0  0  0  0  0  0
   -2.2980   15.0020   -0.8430 C   0  0  1  0  0  0  0  0  0  0  0  0
   -3.5150   15.3610   -2.7750 C   0  0  0  0  0  0  0  0  0  0  0  0
   -2.2770   15.1090   -2.3360 C   0  0  0  0  0  0  0  0  0  0  0  0
   -1.4330   15.9440   -0.0860 N   0  0  0  0  0  0  0  0  0  0  0  0
   -1.7120   13.7160   -0.4250 C   0  0  0  0  0  0  0  0  0  0  0  0
   -1.0500   14.9170   -3.1540 C   0  0  0  0  0  0  0  0  0  0  0  0
   -0.6800   13.8500    0.3360 N   0  0  0  0  0  0  0  0  0  0  0  0
   -0.5560   15.1890    0.5110 C   0  0  0  0  0  0  0  0  0  0  0  0
   -1.1780   15.6600   -4.3440 O   0  0  0  0  0  0  0  0  0  0  0  0
    0.0910   15.4450   -2.5050 O   0  0  0  0  0  0  0  0  0  0  0  0
   -0.7510   13.5070   -3.5200 C   0  0  0  0  0  0  0  0  0  0  0  0
   -1.1760   12.6960   -4.5520 C   0  0  0  0  0  0  0  0  0  0  0  0
    0.1060   12.7940   -2.7270 O   0  0  0  0  0  0  0  0  0  0  0  0
    0.2450   11.5120   -3.2330 N   0  0  0  0  0  0  0  0  0  0  0  0
   -0.5290   11.4790   -4.3180 C   0  0  0  0  0  0  0  0  0  0  0  0
   -0.6460   10.3660   -5.0770 O   0  0  0  0  0  0  0  0  0  0  0  0
   -1.7590   10.3720   -5.9630 C   0  0  0  0  0  0  0  0  0  0  0  0
  1  2  1  0
  2  3  2  0
  2  4  1  0
  3  5  1  0
  4  6  1  0
  5  6  2  0
  4  7  1  0
  4  8  1  6
  6  9  1  0
  8 10  2  0
  7 11  2  0
 10 11  1  0
  9 12  1  0
  9 13  1  0
  9 14  1  0
 14 15  2  0
 14 16  1  0
 16 17  1  0
 15 18  1  0
 17 18  2  0
 18 19  1  0
 19 20  1  0
M  END
