mac-x0193-mac-x0590
     RDKit          3D

 31 34  0  0  0  0  0  0  0  0999 V2000
   -0.1070   10.2920   -2.4170 O   0  0  0  0  0  0  0  0  0  0  0  0
    0.6220   11.4190   -2.4310 C   0  0  0  0  0  0  0  0  0  0  0  0
    0.7110   12.1350   -1.4540 O   0  0  0  0  0  0  0  0  0  0  0  0
    1.3160   11.7120   -3.7330 C   0  0  1  0  0  0  0  0  0  0  0  0
    0.3740   12.3510   -4.7780 C   0  0  1  0  0  0  0  0  0  0  0  0
    2.3210   12.6610   -3.4030 O   0  0  0  0  0  0  0  0  0  0  0  0
    1.2990   13.3710   -5.4350 C   0  0  0  0  0  0  0  0  0  0  0  0
    2.5480   13.4240   -4.5730 C   0  0  0  0  0  0  0  0  0  0  0  0
    0.0170   11.3610   -5.8230 N   0  0  0  0  0  0  0  0  0  0  0  0
   -0.9200   12.8850   -4.0990 C   0  0  0  0  0  0  0  0  0  0  0  0
    0.7290   11.2330   -6.9740 C   0  0  0  0  0  0  0  0  0  0  0  0
   -1.4070   14.2890   -4.4800 C   0  0  0  0  0  0  0  0  0  0  0  0
    1.9170   11.4070   -7.0110 O   0  0  0  0  0  0  0  0  0  0  0  0
    0.0270   10.8990   -8.0920 N   0  0  0  0  0  0  0  0  0  0  0  0
   -1.4790   15.2490   -3.2780 C   0  0  0  0  0  0  0  0  0  0  0  0
    0.2510    9.9140   -9.1580 C   0  0  0  0  0  0  0  0  0  0  0  0
   -2.2360   14.8020   -2.0940 N   0  0  0  0  0  0  0  0  0  0  0  0
    1.2390    8.8140   -8.7900 C   0  0  0  0  0  0  0  0  0  0  0  0
    0.6440   10.5750  -10.4650 C   0  0  0  0  0  0  0  0  0  0  0  0
   -3.6640   15.1460   -2.1810 C   0  0  0  0  0  0  0  0  0  0  0  0
   -1.7030   15.2870   -0.8390 C   0  0  1  0  0  0  0  0  0  0  0  0
    2.0450    8.2470   -9.9660 C   0  0  0  0  0  0  0  0  0  0  0  0
    0.6580    9.5640  -11.6150 C   0  0  0  0  0  0  0  0  0  0  0  0
   -4.1790   15.6820   -0.9150 N   0  0  0  0  0  0  0  0  0  0  0  0
   -2.3800   14.5660    0.3100 C   0  0  2  0  0  0  0  0  0  0  0  0
   -0.3160   14.9040   -0.5790 N   0  0  0  0  0  0  0  0  0  0  0  0
    1.2210    8.1890  -11.2380 C   0  0  0  0  0  0  0  0  0  0  0  0
   -3.8840   14.8610    0.2480 C   0  0  1  0  0  0  0  0  0  0  0  0
   -1.5420   14.9910    1.4240 N   0  0  0  0  0  0  0  0  0  0  0  0
   -0.2160   14.7310    0.8660 C   0  0  0  0  0  0  0  0  0  0  0  0
   -4.4600   15.5190    1.4100 N   0  0  0  0  0  0  0  0  0  0  0  0
  1  2  1  0
  2  3  2  0
  4  2  1  1
  4  5  1  0
  4  6  1  0
  5  7  1  0
  6  8  1  0
  7  8  1  0
  5  9  1  0
  5 10  1  1
  9 11  1  0
 10 12  1  0
 11 13  2  0
 11 14  1  0
 12 15  1  0
 14 16  1  0
 15 17  1  0
 16 18  1  0
 16 19  1  0
 17 20  1  0
 17 21  1  0
 18 22  1  0
 19 23  1  0
 20 24  1  0
 21 25  1  0
 21 26  1  6
 22 27  1  0
 23 27  1  0
 24 28  1  0
 25 28  1  0
 25 29  1  1
 26 30  1  0
 29 30  1  0
 28 31  1  1
M  END
