mac-x0398-mac-x0576
     RDKit          3D

 17 19  0  0  0  0  0  0  0  0999 V2000
   -6.2490   14.9140    1.9660 N   0  0  0  0  0  0  0  0  0  0  0  0
   -5.5750   15.0700    0.6760 C   0  0  1  0  0  0  0  0  0  0  0  0
   -4.0930   15.5020    0.8180 C   0  0  0  0  0  0  0  0  0  0  0  0
   -5.7850   13.8340   -0.1770 C   0  0  0  0  0  0  0  0  0  0  0  0
   -5.4300   14.1950   -1.6120 C   0  0  1  0  0  0  0  0  0  0  0  0
   -3.3230   14.9740   -0.4100 C   0  0  1  0  0  0  0  0  0  0  0  0
   -6.5460   14.7290   -2.3160 O   0  0  0  0  0  0  0  0  0  0  0  0
   -4.2680   15.1440   -1.6150 C   0  0  1  0  0  0  0  0  0  0  0  0
   -2.0720   15.6910   -0.9200 C   0  0  2  0  0  0  0  0  0  0  0  0
   -2.8230   13.6440    0.0500 C   0  0  0  0  0  0  0  0  0  0  0  0
   -3.3420   15.1460   -2.8030 C   0  0  0  0  0  0  0  0  0  0  0  0
   -2.0720   15.3790   -2.3260 N   0  0  0  0  0  0  0  0  0  0  0  0
   -0.8250   15.1530   -0.4570 N   0  0  0  0  0  0  0  0  0  0  0  0
   -1.9220   13.9150    1.1740 N   0  0  0  0  0  0  0  0  0  0  0  0
   -3.6630   14.9860   -3.9680 O   0  0  0  0  0  0  0  0  0  0  0  0
   -0.9360   14.8940    0.9260 C   0  0  1  0  0  0  0  0  0  0  0  0
    0.2820   14.4470    1.4550 N   0  0  0  0  0  0  0  0  0  0  0  0
  2  1  1  1
  2  3  1  0
  2  4  1  0
  4  5  1  0
  6  3  1  1
  5  7  1  1
  5  8  1  0
  6  8  1  0
  6  9  1  0
  6 10  1  0
  8 11  1  6
  9 12  1  6
 11 12  1  0
  9 13  1  0
 10 14  1  0
 11 15  2  0
 13 16  1  0
 14 16  1  0
 16 17  1  6
M  END
