mac-x0496-diamond-x0910_1_A
     RDKit          3D

 24 26  0  0  0  0  0  0  0  0999 V2000
  -10.1290   17.7510    4.5600 C   0  0  0  0  0  0  0  0  0  0  0  0
   -9.8960   16.7240    3.5230 C   0  0  0  0  0  0  0  0  0  0  0  0
  -10.7110   16.5220    2.4810 N   0  0  0  0  0  0  0  0  0  0  0  0
   -8.8170   15.8950    3.5590 N   0  0  0  0  0  0  0  0  0  0  0  0
  -10.0960   15.4750    1.7780 O   0  0  0  0  0  0  0  0  0  0  0  0
   -8.9610   15.1480    2.4830 C   0  0  0  0  0  0  0  0  0  0  0  0
   -8.0740   14.0350    1.9810 C   0  0  0  0  0  0  0  0  0  0  0  0
   -7.5250   14.1920    0.6090 N   0  0  0  0  0  0  0  0  0  0  0  0
   -6.7360   13.2000    0.1480 C   0  0  0  0  0  0  0  0  0  0  0  0
   -6.5270   15.0320    0.3090 C   0  0  0  0  0  0  0  0  0  0  0  0
   -7.0950   12.1080   -0.2240 O   0  0  0  0  0  0  0  0  0  0  0  0
   -5.2920   13.6460    0.0650 C   0  0  0  0  0  0  0  0  0  0  0  0
   -6.5070   15.6700   -0.8560 N   0  0  0  0  0  0  0  0  0  0  0  0
   -5.4300   15.2590    1.1040 N   0  0  0  0  0  0  0  0  0  0  0  0
   -4.5370   13.7370    1.2560 C   0  0  0  0  0  0  0  0  0  0  0  0
   -4.6770   14.0060   -1.1580 C   0  0  0  0  0  0  0  0  0  0  0  0
   -5.3430   16.3080   -0.7830 N   0  0  0  0  0  0  0  0  0  0  0  0
   -4.6980   16.0630    0.3860 C   0  0  0  0  0  0  0  0  0  0  0  0
   -3.2060   14.1780    1.2380 C   0  0  0  0  0  0  0  0  0  0  0  0
   -3.3360   14.4470   -1.1640 C   0  0  0  0  0  0  0  0  0  0  0  0
   -2.6530   14.8310   -2.4300 C   0  0  0  0  0  0  0  0  0  0  0  0
   -2.6030   14.5340    0.0310 C   0  0  0  0  0  0  0  0  0  0  0  0
   -1.4450   14.8010   -2.5750 O   0  0  0  0  0  0  0  0  0  0  0  0
   -3.5110   15.2130   -3.4040 O   0  0  0  0  0  0  0  0  0  0  0  0
  1  2  1  0
  2  3  2  0
  2  4  1  0
  3  5  1  0
  4  6  2  0
  5  6  1  0
  6  7  1  0
  7  8  1  0
  8  9  1  0
  8 10  1  0
  9 11  2  0
  9 12  1  0
 10 13  2  0
 10 14  1  0
 12 15  2  0
 12 16  1  0
 13 17  1  0
 14 18  2  0
 17 18  1  0
 15 19  1  0
 16 20  2  0
 20 21  1  0
 19 22  2  0
 20 22  1  0
 21 23  2  0
 21 24  1  0
M  END
