mac-x0365-mac-x0590
     RDKit          3D

 23 25  0  0  0  0  0  0  0  0999 V2000
   -0.6300   14.4690   -2.1900 O   0  0  0  0  0  0  0  0  0  0  0  0
   -1.8960   14.4950   -2.6460 C   0  0  0  0  0  0  0  0  0  0  0  0
   -2.4020   13.9030   -3.6520 N   0  0  0  0  0  0  0  0  0  0  0  0
   -2.8360   15.3320   -1.8580 C   0  0  1  0  0  0  0  0  0  0  0  0
   -1.8070   13.0110   -4.6030 C   0  0  0  0  0  0  0  0  0  0  0  0
   -4.2090   15.0960   -2.5010 C   0  0  0  0  0  0  0  0  0  0  0  0
   -2.7360   15.1670   -0.3200 C   0  0  1  0  0  0  0  0  0  0  0  0
   -0.4220   13.4460   -5.0080 C   0  0  0  0  0  0  0  0  0  0  0  0
   -5.3540   14.7350   -1.6000 C   0  0  2  0  0  0  0  0  0  0  0  0
   -4.0420   15.6800    0.4190 C   0  0  2  0  0  0  0  0  0  0  0  0
   -2.2890   13.8530    0.2600 N   0  0  0  0  0  0  0  0  0  0  0  0
   -1.4570   15.9500    0.0430 C   0  0  0  0  0  0  0  0  0  0  0  0
   -6.4980   14.9450   -2.3220 F   0  0  0  0  0  0  0  0  0  0  0  0
   -4.1910   15.0800    1.7500 N   0  0  0  0  0  0  0  0  0  0  0  0
   -5.4020   15.5640   -0.3500 C   0  0  2  0  0  0  0  0  0  0  0  0
    0.5600   12.2850   -4.9610 C   0  0  2  0  0  0  0  0  0  0  0  0
   -0.3820   14.9810   -0.0150 N   0  0  0  0  0  0  0  0  0  0  0  0
   -0.9700   14.0340    0.8650 C   0  0  0  0  0  0  0  0  0  0  0  0
   -6.4070   14.9930    0.5100 O   0  0  0  0  0  0  0  0  0  0  0  0
    0.8930   11.9770   -3.4990 C   0  0  0  0  0  0  0  0  0  0  0  0
    1.8780   12.6530   -5.5840 C   0  0  0  0  0  0  0  0  0  0  0  0
    2.7490   13.0180   -4.4070 C   0  0  0  0  0  0  0  0  0  0  0  0
    2.2790   12.2590   -3.2910 O   0  0  0  0  0  0  0  0  0  0  0  0
  1  2  1  0
  2  3  2  3
  4  2  1  6
  3  5  1  0
  4  6  1  0
  4  7  1  0
  5  8  1  0
  6  9  1  0
  7 10  1  0
  7 11  1  0
  7 12  1  1
  9 13  1  6
 10 14  1  1
  9 15  1  0
 10 15  1  0
 16  8  1  1
 12 17  1  0
 11 18  1  0
 17 18  1  0
 15 19  1  1
 16 20  1  0
 16 21  1  0
 21 22  1  0
 20 23  1  0
 22 23  1  0
M  END
