mac-x0124-mac-x0283
     RDKit          3D

 20 23  0  0  0  0  0  0  0  0999 V2000
    0.9020   14.6930   -2.8040 C   0  0  0  0  0  0  0  0  0  0  0  0
   -0.4220   14.7440   -2.2560 N   0  0  0  0  0  0  0  0  0  0  0  0
   -1.5650   14.8260   -3.0040 C   0  0  0  0  0  0  0  0  0  0  0  0
   -0.7330   14.7180   -0.9050 C   0  0  0  0  0  0  0  0  0  0  0  0
   -2.6070   14.8590   -2.1300 C   0  0  0  0  0  0  0  0  0  0  0  0
   -2.0750   14.7960   -0.8090 C   0  0  0  0  0  0  0  0  0  0  0  0
    0.0870   14.6360    0.1370 N   0  0  0  0  0  0  0  0  0  0  0  0
   -2.6820   14.8050    0.4220 C   0  0  0  0  0  0  0  0  0  0  0  0
   -0.5860   14.6370    1.3230 C   0  0  0  0  0  0  0  0  0  0  0  0
   -1.9410   14.7200    1.5730 N   0  0  0  0  0  0  0  0  0  0  0  0
   -4.0410   14.9180   -0.0300 C   0  0  0  0  0  0  0  0  0  0  0  0
   -5.4250   14.8590    0.3520 C   0  0  0  0  0  0  0  0  0  0  0  0
   -3.7820   15.1730   -1.3720 C   0  0  0  0  0  0  0  0  0  0  0  0
   -6.3510   14.6720    1.4280 C   0  0  0  0  0  0  0  0  0  0  0  0
   -6.3250   15.0570   -0.7190 C   0  0  0  0  0  0  0  0  0  0  0  0
   -4.7030   15.3590   -2.3480 C   0  0  0  0  0  0  0  0  0  0  0  0
   -6.0600   14.4610    2.7020 N   0  0  0  0  0  0  0  0  0  0  0  0
   -7.6260   14.7360    1.0310 N   0  0  0  0  0  0  0  0  0  0  0  0
   -7.5980   14.9780   -0.3080 O   0  0  0  0  0  0  0  0  0  0  0  0
   -6.0180   15.3030   -2.0390 C   0  0  0  0  0  0  0  0  0  0  0  0
  1  2  1  0
  2  3  1  0
  2  4  1  0
  3  5  2  0
  4  6  2  0
  5  6  1  0
  4  7  1  0
  6  8  1  0
  7  9  2  0
  8 10  2  0
  9 10  1  0
  8 11  1  0
 11 12  1  0
 11 13  2  0
 12 14  1  0
 12 15  2  0
 13 16  1  0
 14 17  1  0
 14 18  2  0
 15 19  1  0
 18 19  1  0
 15 20  1  0
 16 20  2  0
M  END
