mac-x0441-mac-x0472
     RDKit          3D

 34 37  0  0  0  0  0  0  0  0999 V2000
    0.4840   10.8450   -3.3420 O   0  0  0  0  0  0  0  0  0  0  0  0
    0.8500   12.1310   -3.5180 C   0  0  0  0  0  0  0  0  0  0  0  0
    1.3380   12.7760   -2.5960 O   0  0  0  0  0  0  0  0  0  0  0  0
    0.6310   12.7360   -4.8960 C   0  0  2  0  0  0  0  0  0  0  0  0
   -0.4060   13.8580   -4.8100 C   0  0  0  0  0  0  0  0  0  0  0  0
    0.2920   11.7590   -5.9370 N   0  0  0  0  0  0  0  0  0  0  0  0
   -1.6300   13.4010   -4.0260 C   0  0  0  0  0  0  0  0  0  0  0  0
    1.0410   11.7680   -7.0730 N   0  0  0  0  0  0  0  0  0  0  0  0
   -0.6910   10.8010   -5.9750 C   0  0  0  0  0  0  0  0  0  0  0  0
   -2.6440   14.4510   -3.8980 N   0  0  0  0  0  0  0  0  0  0  0  0
    0.5120   10.7910   -7.8520 C   0  0  0  0  0  0  0  0  0  0  0  0
   -0.5630   10.1710   -7.1910 C   0  0  0  0  0  0  0  0  0  0  0  0
   -1.7210   10.4550   -4.9600 C   0  0  0  0  0  0  0  0  0  0  0  0
    0.9650   10.3860   -9.2380 C   0  0  0  0  0  0  0  0  0  0  0  0
   -3.5110   14.4660   -2.6340 S   0  0  2  0  0  0  0  0  0  0  0  0
   -1.4400    9.0530   -7.6530 C   0  0  0  0  0  0  0  0  0  0  0  0
   -2.8870    9.7350   -5.6650 C   0  0  0  0  0  0  0  0  0  0  0  0
    1.6610    9.2190   -9.2510 F   0  0  0  0  0  0  0  0  0  0  0  0
   -0.1010   10.1860  -10.0470 F   0  0  0  0  0  0  0  0  0  0  0  0
    1.6930   11.3050   -9.8970 F   0  0  0  0  0  0  0  0  0  0  0  0
   -4.5330   15.4530   -2.3840 O   0  0  0  0  0  0  0  0  0  0  0  0
   -2.3510   14.7250   -1.4670 N   0  0  0  0  0  0  0  0  0  0  0  0
   -2.3860    8.5730   -6.5370 C   0  0  0  0  0  0  0  0  0  0  0  0
   -4.1950   12.8480   -2.3440 C   0  0  0  0  0  0  0  0  0  0  0  0
   -2.7580   14.8150   -0.1930 C   0  0  0  0  0  0  0  0  0  0  0  0
   -3.4550   11.7020   -2.6650 C   0  0  0  0  0  0  0  0  0  0  0  0
   -5.4730   12.7310   -1.7920 C   0  0  0  0  0  0  0  0  0  0  0  0
   -2.0440   14.3810    0.8190 N   0  0  0  0  0  0  0  0  0  0  0  0
   -4.2710   15.5060    0.2860 S   0  0  0  0  0  0  0  0  0  0  0  0
   -4.0050   10.4430   -2.4370 C   0  0  0  0  0  0  0  0  0  0  0  0
   -6.0150   11.4660   -1.5650 C   0  0  0  0  0  0  0  0  0  0  0  0
   -3.8430   15.1450    1.8880 C   0  0  0  0  0  0  0  0  0  0  0  0
   -2.6730   14.5690    2.0230 N   0  0  0  0  0  0  0  0  0  0  0  0
   -5.2820   10.3270   -1.8910 C   0  0  0  0  0  0  0  0  0  0  0  0
  1  2  1  0
  2  3  2  0
  2  4  1  0
  4  5  1  1
  4  6  1  0
  5  7  1  0
  6  8  1  0
  6  9  1  0
  7 10  1  0
  8 11  2  0
  9 12  2  0
 11 12  1  0
  9 13  1  0
 11 14  1  0
 10 15  2  0
 12 16  1  0
 13 17  1  0
 14 18  1  0
 14 19  1  0
 14 20  1  0
 15 21  2  0
 15 22  1  1
 16 23  1  0
 17 23  1  0
 15 24  1  0
 22 25  1  0
 24 26  2  0
 24 27  1  0
 25 28  2  0
 25 29  1  0
 26 30  1  0
 27 31  2  0
 29 32  1  0
 28 33  1  0
 32 33  2  0
 30 34  2  0
 31 34  1  0
M  END
