mac-x0555-mac-x0271
     RDKit          3D

 12 13  0  0  0  0  0  0  0  0999 V2000
   -7.4380   14.6360    2.9720 N   0  0  0  0  0  0  0  0  0  0  0  0
   -6.9450   14.5610    1.6830 C   0  0  0  0  0  0  0  0  0  0  0  0
   -7.9060   14.7540    0.5080 C   0  0  0  0  0  0  0  0  0  0  0  0
   -5.6520   14.3260    1.4330 C   0  0  0  0  0  0  0  0  0  0  0  0
   -9.1220   14.6580    0.6860 O   0  0  0  0  0  0  0  0  0  0  0  0
   -5.1230   14.2110    0.0540 C   0  0  1  0  0  0  0  0  0  0  0  0
   -7.3470   15.0620   -0.7080 N   0  0  0  0  0  0  0  0  0  0  0  0
   -6.0910   14.8410   -0.9450 C   0  0  0  0  0  0  0  0  0  0  0  0
   -3.7110   14.6640   -0.1440 C   0  0  0  0  0  0  0  0  0  0  0  0
   -5.5450   15.1970   -2.2760 C   0  0  0  0  0  0  0  0  0  0  0  0
   -3.3080   15.1740   -1.3070 C   0  0  0  0  0  0  0  0  0  0  0  0
   -4.2210   15.3440   -2.4100 C   0  0  0  0  0  0  0  0  0  0  0  0
  1  2  1  0
  2  3  1  0
  2  4  2  0
  3  5  2  0
  6  4  1  1
  3  7  1  0
  6  8  1  0
  7  8  2  0
  6  9  1  0
  8 10  1  0
  9 11  2  0
 10 12  2  0
 11 12  1  0
M  END
