mac-x0387-mac-x0437
     RDKit          3D

 26 29  0  0  0  0  0  0  0  0999 V2000
   -3.8930   15.1140    1.6190 N   0  0  0  0  0  0  0  0  0  0  0  0
   -2.6250   14.8660    1.0780 C   0  0  0  0  0  0  0  0  0  0  0  0
   -1.6360   14.6320    1.9490 N   0  0  0  0  0  0  0  0  0  0  0  0
   -2.4370   14.8770   -0.3140 C   0  0  0  0  0  0  0  0  0  0  0  0
   -1.1280   14.6500   -0.8020 C   0  0  0  0  0  0  0  0  0  0  0  0
   -0.4060   14.4150    1.4700 C   0  0  0  0  0  0  0  0  0  0  0  0
   -3.4840   15.1090   -1.2330 C   0  0  0  0  0  0  0  0  0  0  0  0
   -0.1080   14.4180    0.1290 C   0  0  0  0  0  0  0  0  0  0  0  0
   -0.8960   14.6690   -2.1950 C   0  0  0  0  0  0  0  0  0  0  0  0
   -3.2580   15.1160   -2.6050 C   0  0  0  0  0  0  0  0  0  0  0  0
    0.4930   14.4580   -2.7510 C   0  0  0  0  0  0  0  0  0  0  0  0
   -1.9670   14.8980   -3.0860 C   0  0  0  0  0  0  0  0  0  0  0  0
    1.0170   13.2130   -2.2570 O   0  0  0  0  0  0  0  0  0  0  0  0
    1.0750   12.2750   -3.2180 C   0  0  0  0  0  0  0  0  0  0  0  0
    0.7940   11.0970   -3.0370 O   0  0  0  0  0  0  0  0  0  0  0  0
    1.5080   12.8740   -4.5400 C   0  0  0  0  0  0  0  0  0  0  0  0
    0.3560   13.1300   -5.5010 C   0  0  0  0  0  0  0  0  0  0  0  0
   -0.4860   11.9750   -5.6950 N   0  0  0  0  0  0  0  0  0  0  0  0
   -1.6320   11.6950   -5.0060 C   0  0  0  0  0  0  0  0  0  0  0  0
   -0.2740   10.9750   -6.5950 C   0  0  0  0  0  0  0  0  0  0  0  0
   -2.1750   10.5660   -5.4070 N   0  0  0  0  0  0  0  0  0  0  0  0
   -1.3400   10.1050   -6.3960 C   0  0  0  0  0  0  0  0  0  0  0  0
    0.7240   10.7510   -7.5420 C   0  0  0  0  0  0  0  0  0  0  0  0
   -1.4270    8.9440   -7.1730 C   0  0  0  0  0  0  0  0  0  0  0  0
    0.6250    9.5910   -8.3090 C   0  0  0  0  0  0  0  0  0  0  0  0
   -0.4340    8.6980   -8.1310 C   0  0  0  0  0  0  0  0  0  0  0  0
  1  2  1  0
  2  3  2  0
  2  4  1  0
  4  5  2  0
  3  6  1  0
  4  7  1  0
  5  8  1  0
  6  8  2  0
  5  9  1  0
  7 10  2  0
  9 11  1  0
  9 12  2  0
 10 12  1  0
 11 13  1  0
 13 14  1  0
 14 15  2  0
 14 16  1  0
 16 17  1  0
 17 18  1  0
 18 19  1  0
 18 20  1  0
 19 21  2  0
 20 22  2  0
 21 22  1  0
 20 23  1  0
 22 24  1  0
 23 25  2  0
 24 26  2  0
 25 26  1  0
M  END
