mac-x0138-mac-x0179
     RDKit          3D

 30 33  0  0  0  0  0  0  0  0999 V2000
   -1.8460   14.8490   -3.5120 C   0  0  0  0  0  0  0  0  0  0  0  0
   -2.7570   14.9900   -2.4070 N   0  0  0  0  0  0  0  0  0  0  0  0
   -4.0890   15.2470   -2.4520 C   0  0  0  0  0  0  0  0  0  0  0  0
   -2.4190   14.8890   -1.1020 C   0  0  0  0  0  0  0  0  0  0  0  0
   -4.6150   15.3200   -1.2410 N   0  0  0  0  0  0  0  0  0  0  0  0
   -3.5590   15.0950   -0.3810 C   0  0  0  0  0  0  0  0  0  0  0  0
   -1.2390   14.6520   -0.6290 N   0  0  0  0  0  0  0  0  0  0  0  0
   -3.4300   15.0420    1.0240 C   0  0  0  0  0  0  0  0  0  0  0  0
   -1.1960   14.6190    0.6900 C   0  0  0  0  0  0  0  0  0  0  0  0
   -4.5110   15.2530    1.8660 N   0  0  0  0  0  0  0  0  0  0  0  0
    0.0940   14.4000    0.9870 N   0  0  0  0  0  0  0  0  0  0  0  0
   -2.2000   14.7830    1.5620 N   0  0  0  0  0  0  0  0  0  0  0  0
    0.7210   14.8820   -0.2560 C   0  0  0  0  0  0  0  0  0  0  0  0
    0.8420   13.8140   -1.3430 C   0  0  0  0  0  0  0  0  0  0  0  0
    2.1760   13.8010   -2.0710 C   0  0  0  0  0  0  0  0  0  0  0  0
    2.2930   12.5500   -2.7490 O   0  0  0  0  0  0  0  0  0  0  0  0
    1.1670   12.0310   -3.3060 C   0  0  0  0  0  0  0  0  0  0  0  0
    0.6200   11.0080   -2.9070 O   0  0  0  0  0  0  0  0  0  0  0  0
    0.6570   12.8590   -4.4880 C   0  0  0  0  0  0  0  0  0  0  0  0
    0.0010   12.0630   -5.5130 N   0  0  0  0  0  0  0  0  0  0  0  0
    0.6900   11.5590   -6.5660 C   0  0  0  0  0  0  0  0  0  0  0  0
   -1.1680   11.3820   -5.3100 C   0  0  0  0  0  0  0  0  0  0  0  0
    1.7990   11.8310   -6.9310 O   0  0  0  0  0  0  0  0  0  0  0  0
   -1.9680   11.4860   -4.4060 O   0  0  0  0  0  0  0  0  0  0  0  0
   -0.1620   10.5500   -7.1980 C   0  0  0  0  0  0  0  0  0  0  0  0
   -1.3020   10.4390   -6.4240 C   0  0  0  0  0  0  0  0  0  0  0  0
    0.0370    9.7890   -8.3300 C   0  0  0  0  0  0  0  0  0  0  0  0
   -2.3160    9.5500   -6.7370 C   0  0  0  0  0  0  0  0  0  0  0  0
   -0.9730    8.8800   -8.6710 C   0  0  0  0  0  0  0  0  0  0  0  0
   -2.1370    8.7620   -7.8810 C   0  0  0  0  0  0  0  0  0  0  0  0
  1  2  1  0
  2  3  1  0
  2  4  1  0
  3  5  2  0
  4  6  2  0
  5  6  1  0
  4  7  1  0
  6  8  1  0
  7  9  2  0
  8 10  1  0
  9 11  1  0
  8 12  2  0
  9 12  1  0
 11 13  1  0
 13 14  1  0
 14 15  1  0
 15 16  1  0
 16 17  1  0
 17 18  2  0
 17 19  1  0
 19 20  1  0
 20 21  1  0
 20 22  1  0
 21 23  2  0
 22 24  2  0
 21 25  1  0
 22 26  1  0
 25 26  2  0
 25 27  1  0
 26 28  1  0
 27 29  2  0
 28 30  2  0
 29 30  1  0
M  END
