mac-x0138-diamond-x0421_0_A
     RDKit          3D

 22 25  0  0  0  0  0  0  0  0999 V2000
   -2.5230   14.5370   -3.0310 C   0  0  0  0  0  0  0  0  0  0  0  0
   -3.0480   13.3700   -3.3530 C   0  0  0  0  0  0  0  0  0  0  0  0
   -2.7960   12.6070   -4.4850 N   0  0  0  0  0  0  0  0  0  0  0  0
   -3.0230   14.9940   -1.8650 N   0  0  0  0  0  0  0  0  0  0  0  0
   -4.1960   15.6830   -1.7080 C   0  0  0  0  0  0  0  0  0  0  0  0
   -2.5000   14.8110   -0.6070 C   0  0  0  0  0  0  0  0  0  0  0  0
   -3.9970   12.8880   -2.3360 C   0  0  0  0  0  0  0  0  0  0  0  0
   -4.4770   15.9440   -0.4740 N   0  0  0  0  0  0  0  0  0  0  0  0
   -3.4360   15.3950    0.2100 C   0  0  0  0  0  0  0  0  0  0  0  0
   -1.3550   14.1920   -0.2260 N   0  0  0  0  0  0  0  0  0  0  0  0
   -4.4740   11.6500   -1.9970 C   0  0  0  0  0  0  0  0  0  0  0  0
   -4.5630   13.8300   -1.4910 N   0  0  0  0  0  0  0  0  0  0  0  0
   -3.2070   15.3390    1.5450 C   0  0  0  0  0  0  0  0  0  0  0  0
   -1.2130   14.2000    1.1090 C   0  0  0  0  0  0  0  0  0  0  0  0
   -5.3300   11.8660   -0.9300 N   0  0  0  0  0  0  0  0  0  0  0  0
   -5.3430   13.1990   -0.6590 C   0  0  0  0  0  0  0  0  0  0  0  0
   -4.1350   15.8880    2.4130 N   0  0  0  0  0  0  0  0  0  0  0  0
   -0.0770   13.5860    1.6280 N   0  0  0  0  0  0  0  0  0  0  0  0
   -2.0740   14.7330    1.9910 N   0  0  0  0  0  0  0  0  0  0  0  0
   -6.1550   13.8950    0.4780 C   0  0  0  0  0  0  0  0  0  0  0  0
   -7.6240   14.1670    0.2970 C   0  0  0  0  0  0  0  0  0  0  0  0
   -7.1690   13.0910    1.2450 C   0  0  0  0  0  0  0  0  0  0  0  0
  1  2  2  3
  2  3  1  0
  1  4  1  0
  4  5  1  0
  4  6  1  0
  2  7  1  0
  5  8  2  0
  6  9  2  0
  8  9  1  0
  6 10  1  0
  7 11  2  0
  7 12  1  0
  9 13  1  0
 10 14  2  0
 11 15  1  0
 12 16  2  0
 15 16  1  0
 13 17  1  0
 14 18  1  0
 13 19  2  0
 14 19  1  0
 16 20  1  0
 20 21  1  0
 20 22  1  0
 21 22  1  0
M  END
