mac-x0338-mac-x0346
     RDKit          3D

 12 13  0  0  0  0  0  0  0  0999 V2000
   -4.0300   15.2610    2.0310 N   0  0  0  0  0  0  0  0  0  0  0  0
   -5.0030   14.9940    1.1050 C   0  0  0  0  0  0  0  0  0  0  0  0
   -6.2500   14.7810    1.4530 N   0  0  0  0  0  0  0  0  0  0  0  0
   -4.5780   14.9690   -0.3030 C   0  0  0  0  0  0  0  0  0  0  0  0
   -7.1550   14.5450    0.4450 N   0  0  0  0  0  0  0  0  0  0  0  0
   -3.2420   15.0090   -0.5630 N   0  0  0  0  0  0  0  0  0  0  0  0
   -5.5310   14.9060   -1.2800 C   0  0  0  0  0  0  0  0  0  0  0  0
   -6.9330   14.8540   -0.8790 C   0  0  0  0  0  0  0  0  0  0  0  0
   -2.9350   14.9840   -1.8760 C   0  0  0  0  0  0  0  0  0  0  0  0
   -5.2200   14.8830   -2.5990 N   0  0  0  0  0  0  0  0  0  0  0  0
   -7.8370   15.0620   -1.6690 O   0  0  0  0  0  0  0  0  0  0  0  0
   -3.9000   14.9260   -2.8700 C   0  0  0  0  0  0  0  0  0  0  0  0
  1  2  1  0
  2  3  2  0
  2  4  1  0
  3  5  1  0
  4  6  2  0
  4  7  1  0
  5  8  1  0
  7  8  1  0
  6  9  1  0
  7 10  2  0
  8 11  2  0
  9 12  2  0
 10 12  1  0
M  END
