mac-x0404-diamond-x0900_0_A
     RDKit          3D

 23 25  0  0  0  0  0  0  0  0999 V2000
    1.4280   12.9230   -2.1120 O   0  0  0  0  0  0  0  0  0  0  0  0
    1.1070   12.1680   -3.1810 C   0  0  0  0  0  0  0  0  0  0  0  0
    0.3470   11.2240   -3.0240 O   0  0  0  0  0  0  0  0  0  0  0  0
    1.8000   12.6210   -4.4720 C   0  0  0  0  0  0  0  0  0  0  0  0
    1.5500   13.9530   -4.9350 O   0  0  0  0  0  0  0  0  0  0  0  0
    0.2600   14.3650   -4.7540 C   0  0  0  0  0  0  0  0  0  0  0  0
   -0.0660   15.7140   -4.9500 C   0  0  0  0  0  0  0  0  0  0  0  0
   -0.6790   13.4280   -4.3790 C   0  0  0  0  0  0  0  0  0  0  0  0
   -1.3940   16.1400   -4.7430 C   0  0  0  0  0  0  0  0  0  0  0  0
   -1.9700   13.8220   -4.1590 C   0  0  0  0  0  0  0  0  0  0  0  0
    0.9160   16.6310   -5.3450 C   0  0  0  0  0  0  0  0  0  0  0  0
   -2.3540   15.1480   -4.3130 C   0  0  0  0  0  0  0  0  0  0  0  0
   -1.6410   17.5170   -4.9760 C   0  0  0  0  0  0  0  0  0  0  0  0
    0.6460   17.9700   -5.5570 C   0  0  0  0  0  0  0  0  0  0  0  0
   -3.7980   15.4010   -3.9730 C   0  0  0  0  0  0  0  0  0  0  0  0
   -0.6490   18.4170   -5.3750 C   0  0  0  0  0  0  0  0  0  0  0  0
   -4.4610   14.4910   -2.8810 C   0  0  0  0  0  0  0  0  0  0  0  0
   -4.5070   15.0010   -1.4840 N   0  0  0  0  0  0  0  0  0  0  0  0
   -5.6720   14.9700   -0.6860 C   0  0  0  0  0  0  0  0  0  0  0  0
   -3.3580   14.8580   -0.6200 C   0  0  0  0  0  0  0  0  0  0  0  0
   -6.8310   15.0880   -1.0440 O   0  0  0  0  0  0  0  0  0  0  0  0
   -5.2410   14.7510    0.7520 C   0  0  0  0  0  0  0  0  0  0  0  0
   -3.8490   15.3430    0.7300 C   0  0  0  0  0  0  0  0  0  0  0  0
  1  2  1  0
  2  3  2  0
  2  4  1  0
  4  5  1  0
  5  6  1  0
  6  7  2  0
  6  8  1  0
  7  9  1  0
  8 10  2  0
  7 11  1  0
  9 12  2  0
 10 12  1  0
  9 13  1  0
 11 14  2  0
 12 15  1  0
 13 16  2  0
 14 16  1  0
 15 17  1  0
 17 18  1  0
 18 19  1  0
 18 20  1  0
 19 21  2  0
 19 22  1  0
 20 23  1  0
 22 23  1  0
M  END
