mac-x0326-mac-x0206
     RDKit          3D

 24 26  0  0  0  0  0  0  0  0999 V2000
   -6.1540   15.4100   -1.8800 C   0  0  0  0  0  0  0  0  0  0  0  0
   -4.6300   15.4540   -1.8370 C   0  0  0  0  0  0  0  0  0  0  0  0
   -3.8310   15.0960   -2.9380 C   0  0  0  0  0  0  0  0  0  0  0  0
   -6.5600   14.9990   -0.4960 C   0  0  0  0  0  0  0  0  0  0  0  0
   -3.9980   15.8460   -0.6420 C   0  0  0  0  0  0  0  0  0  0  0  0
   -5.5730   14.4310    0.3000 C   0  0  0  0  0  0  0  0  0  0  0  0
   -7.8510   15.1630    0.0400 C   0  0  0  0  0  0  0  0  0  0  0  0
   -4.2140   14.2080   -0.2290 C   0  0  0  0  0  0  0  0  0  0  0  0
   -2.4190   15.1140   -2.8260 C   0  0  0  0  0  0  0  0  0  0  0  0
   -2.6000   15.8730   -0.5130 C   0  0  0  0  0  0  0  0  0  0  0  0
   -8.1110   14.7760    1.3610 C   0  0  0  0  0  0  0  0  0  0  0  0
   -5.8260   14.0530    1.6010 C   0  0  0  0  0  0  0  0  0  0  0  0
   -3.1890   14.4850    0.6320 N   0  0  0  0  0  0  0  0  0  0  0  0
   -4.0320   13.7890   -1.3650 O   0  0  0  0  0  0  0  0  0  0  0  0
   -1.5230   14.7740   -3.8260 N   0  0  0  0  0  0  0  0  0  0  0  0
   -1.8360   15.4970   -1.6160 C   0  0  0  0  0  0  0  0  0  0  0  0
   -7.0930   14.2280    2.1390 C   0  0  0  0  0  0  0  0  0  0  0  0
   -0.2850   14.8860   -3.3910 C   0  0  0  0  0  0  0  0  0  0  0  0
   -0.1230   15.4110   -1.7640 S   0  0  0  0  0  0  0  0  0  0  0  0
    0.9250   14.5810   -4.2360 C   0  0  0  0  0  0  0  0  0  0  0  0
    1.0600   13.0870   -4.5220 C   0  0  0  0  0  0  0  0  0  0  0  0
    1.0770   12.2450   -3.2760 C   0  0  0  0  0  0  0  0  0  0  0  0
    0.2200   11.2060   -3.2880 O   0  0  0  0  0  0  0  0  0  0  0  0
    1.7780   12.4410   -2.3020 O   0  0  0  0  0  0  0  0  0  0  0  0
  1  2  1  0
  2  3  2  0
  1  4  1  0
  2  5  1  0
  4  6  2  0
  4  7  1  0
  6  8  1  0
  3  9  1  0
  5 10  2  0
  7 11  2  0
  6 12  1  0
  8 13  1  0
  8 14  2  0
  9 15  1  0
  9 16  2  0
 10 16  1  0
 11 17  1  0
 12 17  2  0
 15 18  2  0
 16 19  1  0
 18 19  1  0
 18 20  1  0
 20 21  1  0
 21 22  1  0
 22 23  1  0
 22 24  2  0
M  END
