mac-x0303-mac-x0373
     RDKit          3D

 23 25  0  0  0  0  0  0  0  0999 V2000
   -8.3980   13.0710    2.7160 N   0  0  0  0  0  0  0  0  0  0  0  0
   -8.3720   14.6250    2.0690 S   0  0  0  0  0  0  0  0  0  0  0  0
   -8.0880   15.5560    3.1270 O   0  0  0  0  0  0  0  0  0  0  0  0
   -9.5340   14.7530    1.2220 O   0  0  0  0  0  0  0  0  0  0  0  0
   -6.9780   14.6500    0.9690 C   0  0  0  0  0  0  0  0  0  0  0  0
   -7.0180   15.1840   -0.2940 N   0  0  0  0  0  0  0  0  0  0  0  0
   -5.7750   14.1630    1.2290 N   0  0  0  0  0  0  0  0  0  0  0  0
   -5.7830   15.0110   -0.8660 C   0  0  0  0  0  0  0  0  0  0  0  0
   -5.0290   14.3670    0.0910 C   0  0  0  0  0  0  0  0  0  0  0  0
   -5.2830   15.3480   -2.1110 C   0  0  0  0  0  0  0  0  0  0  0  0
   -3.6930   14.0060   -0.2000 C   0  0  0  0  0  0  0  0  0  0  0  0
   -3.9580   14.9800   -2.4090 C   0  0  0  0  0  0  0  0  0  0  0  0
   -3.1410   14.2920   -1.4870 C   0  0  0  0  0  0  0  0  0  0  0  0
   -1.7130   13.8010   -1.8900 C   0  0  2  0  0  0  0  0  0  0  0  0
   -0.3560   14.4920   -1.7530 C   0  0  0  0  0  0  0  0  0  0  0  0
   -1.8220   12.9060   -3.1290 C   0  0  0  0  0  0  0  0  0  0  0  0
    0.5140   13.6410   -1.1560 O   0  0  0  0  0  0  0  0  0  0  0  0
    0.0410   15.5850   -2.0940 O   0  0  0  0  0  0  0  0  0  0  0  0
   -1.0600   13.0350   -4.3070 C   0  0  0  0  0  0  0  0  0  0  0  0
   -2.7670   11.8720   -3.0560 C   0  0  0  0  0  0  0  0  0  0  0  0
   -1.2470   12.1430   -5.3720 C   0  0  0  0  0  0  0  0  0  0  0  0
   -2.9510   10.9880   -4.1150 C   0  0  0  0  0  0  0  0  0  0  0  0
   -2.1930   11.1210   -5.2730 C   0  0  0  0  0  0  0  0  0  0  0  0
  2  1  1  0
  2  3  2  0
  2  4  2  0
  2  5  1  0
  5  6  1  0
  5  7  2  0
  6  8  1  0
  7  9  1  0
  8  9  2  0
  8 10  1  0
  9 11  1  0
 10 12  2  0
 11 13  2  0
 12 13  1  0
 13 14  1  0
 14 15  1  6
 14 16  1  0
 15 17  1  0
 15 18  2  0
 16 19  2  0
 16 20  1  0
 19 21  1  0
 20 22  2  0
 21 23  2  0
 22 23  1  0
M  END
