mac-x0142-mac-x0161
     RDKit          3D

 19 22  0  0  0  0  0  0  0  0999 V2000
   -0.2250   11.4080   -5.1910 O   0  0  0  0  0  0  0  0  0  0  0  0
   -1.3990   10.7260   -5.6310 C   0  0  0  0  0  0  0  0  0  0  0  0
   -0.4820   12.5300   -4.3120 C   0  0  1  0  0  0  0  0  0  0  0  0
    0.7530   13.3680   -3.9620 C   0  0  0  0  0  0  0  0  0  0  0  0
   -1.5710   13.4520   -4.8610 C   0  0  0  0  0  0  0  0  0  0  0  0
    2.1070   13.1510   -4.6170 C   0  0  0  0  0  0  0  0  0  0  0  0
    1.8720   12.6760   -3.2130 C   0  0  0  0  0  0  0  0  0  0  0  0
   -2.0410   14.4330   -3.7860 C   0  0  0  0  0  0  0  0  0  0  0  0
    0.3720   14.7500   -3.4560 C   0  0  0  0  0  0  0  0  0  0  0  0
   -0.9540   14.6770   -2.8190 N   0  0  0  0  0  0  0  0  0  0  0  0
   -1.1720   14.7160   -1.4220 C   0  0  0  0  0  0  0  0  0  0  0  0
   -0.1510   14.5480   -0.4940 N   0  0  0  0  0  0  0  0  0  0  0  0
   -2.3790   14.9400   -0.8690 C   0  0  0  0  0  0  0  0  0  0  0  0
   -0.3890   14.5510    0.8650 C   0  0  0  0  0  0  0  0  0  0  0  0
   -2.5420   14.9800    0.6100 C   0  0  0  0  0  0  0  0  0  0  0  0
   -3.7050   15.2020   -1.3410 C   0  0  0  0  0  0  0  0  0  0  0  0
   -1.5090   14.7380    1.4640 N   0  0  0  0  0  0  0  0  0  0  0  0
   -3.7590   15.2710    0.9620 N   0  0  0  0  0  0  0  0  0  0  0  0
   -4.4410   15.3960   -0.2380 C   0  0  0  0  0  0  0  0  0  0  0  0
  1  2  1  0
  3  1  1  6
  3  4  1  0
  3  5  1  0
  4  6  1  0
  4  7  1  0
  6  7  1  0
  5  8  1  0
  4  9  1  0
  8 10  1  0
  9 10  1  0
 10 11  1  0
 11 12  1  0
 11 13  2  0
 12 14  1  0
 13 15  1  0
 13 16  1  0
 14 17  2  0
 15 17  1  0
 15 18  2  0
 16 19  2  0
 18 19  1  0
M  END
