mac-x0319-mac-x0380
     RDKit          3D

 25 27  0  0  0  0  0  0  0  0999 V2000
    0.5930   10.4480   -2.5560 O   0  0  0  0  0  0  0  0  0  0  0  0
    0.9370   11.7660   -2.4300 C   0  0  0  0  0  0  0  0  0  0  0  0
    0.6990   12.3620   -1.3890 O   0  0  0  0  0  0  0  0  0  0  0  0
    1.5980   12.3930   -3.6560 C   0  0  0  0  0  0  0  0  0  0  0  0
    0.8910   13.6640   -3.9200 C   0  0  0  0  0  0  0  0  0  0  0  0
    1.4520   14.8790   -4.3340 C   0  0  0  0  0  0  0  0  0  0  0  0
   -0.4490   13.5630   -3.7040 C   0  0  0  0  0  0  0  0  0  0  0  0
    0.6070   15.9820   -4.5220 C   0  0  0  0  0  0  0  0  0  0  0  0
   -1.2530   14.6270   -3.8800 C   0  0  0  0  0  0  0  0  0  0  0  0
    1.1630   17.1620   -4.9220 O   0  0  0  0  0  0  0  0  0  0  0  0
   -2.5730   14.3660   -3.5970 O   0  0  0  0  0  0  0  0  0  0  0  0
   -0.7670   15.8680   -4.2980 C   0  0  0  0  0  0  0  0  0  0  0  0
   -3.2180   15.4490   -3.1500 C   0  0  0  0  0  0  0  0  0  0  0  0
   -3.3200   16.4590   -3.7980 O   0  0  0  0  0  0  0  0  0  0  0  0
   -3.8060   15.2750   -1.7840 C   0  0  0  0  0  0  0  0  0  0  0  0
   -5.1900   15.2720   -1.7440 C   0  0  0  0  0  0  0  0  0  0  0  0
   -3.0880   15.1270   -0.5780 C   0  0  0  0  0  0  0  0  0  0  0  0
   -5.8780   15.1330   -0.5490 C   0  0  0  0  0  0  0  0  0  0  0  0
   -3.7780   14.9910    0.6440 C   0  0  0  0  0  0  0  0  0  0  0  0
   -5.1810   14.9960    0.6570 C   0  0  0  0  0  0  0  0  0  0  0  0
   -7.6490   15.1360   -0.6310 S   0  0  0  0  0  0  0  0  0  0  0  0
   -5.8650   14.8630    1.8820 N   0  0  0  0  0  0  0  0  0  0  0  0
   -7.9470   14.1020    0.8110 C   0  0  0  0  0  0  0  0  0  0  0  0
   -7.2010   14.5900    2.0200 C   0  0  0  0  0  0  0  0  0  0  0  0
   -7.7730   14.7540    3.1020 O   0  0  0  0  0  0  0  0  0  0  0  0
  1  2  1  0
  2  3  2  0
  2  4  1  0
  4  5  1  0
  5  6  2  0
  5  7  1  0
  6  8  1  0
  7  9  2  0
  8 10  1  0
  9 11  1  0
  8 12  2  0
  9 12  1  0
 11 13  1  0
 13 14  2  0
 13 15  1  0
 15 16  2  0
 15 17  1  0
 16 18  1  0
 17 19  2  0
 18 20  2  0
 19 20  1  0
 18 21  1  0
 20 22  1  0
 21 23  1  0
 22 24  1  0
 23 24  1  0
 24 25  2  0
M  END
