mac-x0373-diamond-x0438_0_A
     RDKit          3D

 25 27  0  0  0  0  0  0  0  0999 V2000
    0.9860   12.9280   -1.9460 O   0  0  0  0  0  0  0  0  0  0  0  0
    0.1100   13.9360   -2.1000 C   0  0  0  0  0  0  0  0  0  0  0  0
    0.5170   15.0750   -2.2880 O   0  0  0  0  0  0  0  0  0  0  0  0
   -1.3670   13.5520   -2.0170 C   0  0  2  0  0  0  0  0  0  0  0  0
   -1.8140   12.7440   -3.2290 C   0  0  0  0  0  0  0  0  0  0  0  0
   -2.1420   14.7500   -1.4140 C   0  0  1  0  0  0  0  0  0  0  0  0
   -1.1140   12.8490   -4.4480 C   0  0  0  0  0  0  0  0  0  0  0  0
   -2.9030   11.8770   -3.1450 C   0  0  0  0  0  0  0  0  0  0  0  0
   -3.4400   15.3210   -2.0330 C   0  0  0  0  0  0  0  0  0  0  0  0
   -2.3120   14.5890    0.0810 C   0  0  0  0  0  0  0  0  0  0  0  0
   -1.5070   12.0900   -5.5490 C   0  0  0  0  0  0  0  0  0  0  0  0
   -3.2910   11.1230   -4.2420 C   0  0  0  0  0  0  0  0  0  0  0  0
   -4.6410   15.2860   -1.3990 C   0  0  0  0  0  0  0  0  0  0  0  0
   -3.4980   14.5330    0.6890 C   0  0  0  0  0  0  0  0  0  0  0  0
   -2.5940   11.2250   -5.4450 C   0  0  0  0  0  0  0  0  0  0  0  0
   -4.8130   14.6230   -0.0410 C   0  0  1  0  0  0  0  0  0  0  0  0
   -5.8130   15.1220    0.8940 N   0  0  0  0  0  0  0  0  0  0  0  0
   -5.4910   13.2780   -0.2880 C   0  0  0  0  0  0  0  0  0  0  0  0
   -6.9150   13.6480   -0.4720 N   0  0  0  0  0  0  0  0  0  0  0  0
   -7.1660   14.6640    0.5360 C   0  0  1  0  0  0  0  0  0  0  0  0
   -7.9460   14.0760    1.7240 C   0  0  0  0  0  0  0  0  0  0  0  0
   -9.1240   15.2010    2.4900 S   0  0  0  0  0  0  0  0  0  0  0  0
   -8.2740   15.7190    3.9680 C   0  0  0  0  0  0  0  0  0  0  0  0
  -10.3010   14.4740    2.9280 O   0  0  0  0  0  0  0  0  0  0  0  0
   -9.2890   16.3690    1.6470 O   0  0  0  0  0  0  0  0  0  0  0  0
  1  2  1  0
  2  3  2  0
  4  2  1  6
  4  5  1  0
  4  6  1  0
  5  7  2  0
  5  8  1  0
  6  9  1  6
  6 10  1  0
  7 11  1  0
  8 12  2  0
  9 13  2  0
 10 14  2  0
 11 15  2  0
 12 15  1  0
 16 13  1  6
 14 16  1  0
 16 17  1  0
 16 18  1  0
 18 19  1  0
 17 20  1  0
 19 20  1  0
 20 21  1  1
 22 21  1  0
 22 23  1  0
 22 24  2  0
 22 25  2  0
M  END
