mac-x0277-mac-x0527
     RDKit          3D

 27 29  0  0  0  0  0  0  0  0999 V2000
   -1.2910   18.5420   -5.2100 Cl  0  0  0  0  0  0  0  0  0  0  0  0
   -0.5530   17.0590   -4.7350 C   0  0  0  0  0  0  0  0  0  0  0  0
   -1.2710   16.0750   -4.0550 C   0  0  0  0  0  0  0  0  0  0  0  0
    0.7880   16.8460   -5.0340 C   0  0  0  0  0  0  0  0  0  0  0  0
   -2.6390   16.1710   -3.6490 N   0  0  0  0  0  0  0  0  0  0  0  0
   -0.5950   14.8700   -3.7170 C   0  0  0  0  0  0  0  0  0  0  0  0
    1.4130   15.6480   -4.6690 C   0  0  0  0  0  0  0  0  0  0  0  0
   -2.7100   15.1980   -2.5320 C   0  0  2  0  0  0  0  0  0  0  0  0
    0.7420   14.6390   -4.0210 C   0  0  0  0  0  0  0  0  0  0  0  0
    1.4500   13.3370   -3.6590 C   0  0  0  0  0  0  0  0  0  0  0  0
   -2.5890   13.8820   -3.0930 N   0  0  0  0  0  0  0  0  0  0  0  0
   -3.6470   15.2070   -1.3010 C   0  0  0  0  0  0  0  0  0  0  0  0
    0.8040   12.5140   -2.5520 C   0  0  0  0  0  0  0  0  0  0  0  0
   -2.0550   14.1030   -4.4420 C   0  0  0  0  0  0  0  0  0  0  0  0
   -5.0440   15.1940   -1.4040 C   0  0  0  0  0  0  0  0  0  0  0  0
   -3.0380   15.2050   -0.0710 N   0  0  0  0  0  0  0  0  0  0  0  0
    0.2340   11.3780   -3.0180 O   0  0  0  0  0  0  0  0  0  0  0  0
    0.7570   12.7620   -1.3540 O   0  0  0  0  0  0  0  0  0  0  0  0
   -1.4720   12.8510   -4.9840 C   0  0  0  0  0  0  0  0  0  0  0  0
   -5.8600   15.1670   -0.3150 N   0  0  0  0  0  0  0  0  0  0  0  0
   -3.8460   15.1780    1.0040 C   0  0  0  0  0  0  0  0  0  0  0  0
   -2.0830   11.6540   -4.6370 C   0  0  0  0  0  0  0  0  0  0  0  0
   -0.3490   12.8590   -5.8200 C   0  0  0  0  0  0  0  0  0  0  0  0
   -5.2230   15.1560    0.8850 C   0  0  0  0  0  0  0  0  0  0  0  0
   -1.5880   10.4560   -5.1220 C   0  0  0  0  0  0  0  0  0  0  0  0
    0.1490   11.6540   -6.3080 C   0  0  0  0  0  0  0  0  0  0  0  0
   -0.4740   10.4550   -5.9580 C   0  0  0  0  0  0  0  0  0  0  0  0
  1  2  1  0
  2  3  2  0
  2  4  1  0
  3  5  1  0
  3  6  1  0
  4  7  2  0
  8  5  1  6
  6  9  2  0
  7  9  1  0
  9 10  1  0
  8 11  1  0
  8 12  1  0
 10 13  1  0
 11 14  1  0
 12 15  2  0
 12 16  1  0
 13 17  1  0
 13 18  2  0
 14 19  1  0
 15 20  1  0
 16 21  2  0
 19 22  2  0
 19 23  1  0
 20 24  2  0
 21 24  1  0
 22 25  1  0
 23 26  2  0
 25 27  2  0
 26 27  1  0
M  END
