mac-x0338-mac-x0348
     RDKit          3D

 26 28  0  0  0  0  0  0  0  0999 V2000
   -4.0380   15.4360    2.1060 N   0  0  0  0  0  0  0  0  0  0  0  0
   -5.0540   15.1290    1.2680 C   0  0  0  0  0  0  0  0  0  0  0  0
   -6.2140   14.9910    1.6470 O   0  0  0  0  0  0  0  0  0  0  0  0
   -4.6870   14.9790   -0.1520 C   0  0  0  0  0  0  0  0  0  0  0  0
   -3.4570   14.4640   -0.4430 N   0  0  0  0  0  0  0  0  0  0  0  0
   -5.5950   15.3490   -1.1240 C   0  0  0  0  0  0  0  0  0  0  0  0
   -3.1820   14.3240   -1.7600 C   0  0  0  0  0  0  0  0  0  0  0  0
   -5.3230   15.2200   -2.4350 N   0  0  0  0  0  0  0  0  0  0  0  0
   -1.8570   13.7300   -2.1770 C   0  0  0  0  0  0  0  0  0  0  0  0
   -4.1110   14.7060   -2.7270 C   0  0  0  0  0  0  0  0  0  0  0  0
   -0.5510   14.4970   -1.9220 C   0  0  0  0  0  0  0  0  0  0  0  0
    0.3490   14.6260   -3.1770 C   0  0  1  0  0  0  0  0  0  0  0  0
    0.6180   13.3000   -3.8830 C   0  0  0  0  0  0  0  0  0  0  0  0
   -0.0880   15.6940   -4.1460 C   0  0  0  0  0  0  0  0  0  0  0  0
    0.8280   12.2010   -2.8860 C   0  0  0  0  0  0  0  0  0  0  0  0
    0.7080   16.7430   -4.5260 C   0  0  0  0  0  0  0  0  0  0  0  0
   -1.3260   15.8530   -4.8430 C   0  0  0  0  0  0  0  0  0  0  0  0
    1.4930   12.3610   -1.8850 O   0  0  0  0  0  0  0  0  0  0  0  0
    0.2190   11.0330   -3.1600 O   0  0  0  0  0  0  0  0  0  0  0  0
    0.0250   17.5160   -5.4050 N   0  0  0  0  0  0  0  0  0  0  0  0
   -1.2260   17.0100   -5.6090 C   0  0  0  0  0  0  0  0  0  0  0  0
   -2.5300   15.1250   -4.9010 C   0  0  0  0  0  0  0  0  0  0  0  0
    0.5520   18.6940   -6.0290 C   0  0  0  0  0  0  0  0  0  0  0  0
   -3.5790   15.5640   -5.7050 C   0  0  0  0  0  0  0  0  0  0  0  0
   -2.2710   17.4690   -6.4070 C   0  0  0  0  0  0  0  0  0  0  0  0
   -3.4510   16.7240   -6.4490 C   0  0  0  0  0  0  0  0  0  0  0  0
  1  2  1  0
  2  3  2  0
  2  4  1  0
  4  5  2  0
  4  6  1  0
  5  7  1  0
  6  8  2  0
  7  9  1  0
  7 10  2  0
  8 10  1  0
  9 11  1  0
 12 11  1  1
 12 13  1  0
 12 14  1  0
 13 15  1  0
 14 16  2  0
 14 17  1  0
 15 18  2  0
 15 19  1  0
 16 20  1  0
 17 21  2  0
 20 21  1  0
 17 22  1  0
 20 23  1  0
 22 24  2  0
 21 25  1  0
 24 26  1  0
 25 26  2  0
M  END
