mac-x0357-mac-x0231
     RDKit          3D

 23 25  0  0  0  0  0  0  0  0999 V2000
    2.0820   12.9920   -4.6620 C   0  0  0  0  0  0  0  0  0  0  0  0
    0.9040   12.1240   -4.9220 C   0  0  0  0  0  0  0  0  0  0  0  0
    0.7130   11.5610   -6.1900 C   0  0  0  0  0  0  0  0  0  0  0  0
    1.4470   14.3960   -4.6420 C   0  0  1  0  0  0  0  0  0  0  0  0
   -0.0290   11.8780   -3.9000 C   0  0  0  0  0  0  0  0  0  0  0  0
   -0.0020   14.5310   -5.1930 C   0  0  2  0  0  0  0  0  0  0  0  0
    1.6140   15.1940   -3.4560 N   0  0  0  0  0  0  0  0  0  0  0  0
    1.6370   11.7750   -7.1550 O   0  0  0  0  0  0  0  0  0  0  0  0
    0.0980   12.4180   -2.4820 C   0  0  0  0  0  0  0  0  0  0  0  0
   -1.1470   11.0770   -4.2140 C   0  0  0  0  0  0  0  0  0  0  0  0
   -0.3930   10.7780   -6.4780 C   0  0  0  0  0  0  0  0  0  0  0  0
   -0.5140   15.9950   -5.1840 C   0  0  2  0  0  0  0  0  0  0  0  0
    1.4750   16.5060   -3.8800 N   0  0  0  0  0  0  0  0  0  0  0  0
   -1.0420   13.4870   -4.8270 C   0  0  0  0  0  0  0  0  0  0  0  0
   -0.7830   13.4700   -2.1790 O   0  0  0  0  0  0  0  0  0  0  0  0
    1.3980   12.8300   -2.1550 O   0  0  0  0  0  0  0  0  0  0  0  0
   -0.1660   11.3550   -1.6260 O   0  0  0  0  0  0  0  0  0  0  0  0
   -1.3300   10.5380   -5.4870 C   0  0  0  0  0  0  0  0  0  0  0  0
    0.3070   16.9750   -4.3770 C   0  0  0  0  0  0  0  0  0  0  0  0
   -2.0160   16.1510   -5.0230 C   0  0  0  0  0  0  0  0  0  0  0  0
   -2.3370   13.7710   -4.6560 C   0  0  0  0  0  0  0  0  0  0  0  0
   -0.0280   18.1400   -4.2080 O   0  0  0  0  0  0  0  0  0  0  0  0
   -2.8380   15.1130   -4.7880 C   0  0  0  0  0  0  0  0  0  0  0  0
  1  2  1  0
  2  3  2  0
  4  1  1  1
  2  5  1  0
  4  6  1  0
  4  7  1  0
  3  8  1  0
  5  9  1  0
  5 10  2  0
  3 11  1  0
  6 12  1  0
  7 13  1  0
  6 14  1  1
  9 15  1  0
  9 16  1  0
  9 17  1  0
 10 18  1  0
 11 18  2  0
 12 19  1  0
 13 19  1  0
 12 20  1  1
 14 21  2  0
 19 22  2  0
 20 23  2  0
 21 23  1  0
M  END
