mac-x0277-mac-x0397
     RDKit          3D

 26 28  0  0  0  0  0  0  0  0999 V2000
   -1.4840   18.2150   -5.3030 Cl  0  0  0  0  0  0  0  0  0  0  0  0
   -0.7180   16.7040   -4.9730 C   0  0  0  0  0  0  0  0  0  0  0  0
   -1.3360   15.4530   -5.2160 C   0  0  0  0  0  0  0  0  0  0  0  0
    0.5810   16.7590   -4.4490 C   0  0  0  0  0  0  0  0  0  0  0  0
   -2.7250   15.2490   -5.8110 C   0  0  0  0  0  0  0  0  0  0  0  0
   -0.6080   14.2970   -4.9150 C   0  0  0  0  0  0  0  0  0  0  0  0
    1.2790   15.5880   -4.1630 C   0  0  0  0  0  0  0  0  0  0  0  0
   -3.9690   15.3160   -4.9650 C   0  0  0  0  0  0  0  0  0  0  0  0
    0.6900   14.3440   -4.3950 C   0  0  0  0  0  0  0  0  0  0  0  0
    1.4230   13.0620   -4.1000 C   0  0  0  0  0  0  0  0  0  0  0  0
   -4.7010   14.0200   -4.5800 C   0  0  0  0  0  0  0  0  0  0  0  0
    0.9590   12.4040   -2.8230 C   0  0  0  0  0  0  0  0  0  0  0  0
   -6.1440   14.2240   -4.0750 C   0  0  0  0  0  0  0  0  0  0  0  0
    0.2550   11.2740   -3.0440 O   0  0  0  0  0  0  0  0  0  0  0  0
    1.1460   12.7810   -1.6860 O   0  0  0  0  0  0  0  0  0  0  0  0
   -6.2700   14.8940   -2.6950 C   0  0  0  0  0  0  0  0  0  0  0  0
   -4.9510   14.9120   -1.9710 C   0  0  0  0  0  0  0  0  0  0  0  0
   -4.8830   14.9510   -0.5800 C   0  0  0  0  0  0  0  0  0  0  0  0
   -3.7430   14.8830   -2.6860 C   0  0  0  0  0  0  0  0  0  0  0  0
   -5.9720   14.9700    0.2680 N   0  0  0  0  0  0  0  0  0  0  0  0
   -3.6370   14.9700    0.0270 C   0  0  0  0  0  0  0  0  0  0  0  0
   -2.5160   14.8850   -2.0550 C   0  0  0  0  0  0  0  0  0  0  0  0
   -5.5610   15.0060    1.4920 C   0  0  0  0  0  0  0  0  0  0  0  0
   -3.8500   15.0480    1.6920 S   0  0  0  0  0  0  0  0  0  0  0  0
   -2.4410   14.9280   -0.6750 C   0  0  0  0  0  0  0  0  0  0  0  0
   -6.4130   15.0070    2.5310 N   0  0  0  0  0  0  0  0  0  0  0  0
  1  2  1  0
  2  3  2  0
  2  4  1  0
  3  5  1  0
  3  6  1  0
  4  7  2  0
  5  8  1  0
  6  9  2  0
  7  9  1  0
  9 10  1  0
  8 11  1  0
 10 12  1  0
 11 13  1  0
 12 14  1  0
 12 15  2  0
 13 16  1  0
 16 17  1  0
 17 18  1  0
 17 19  2  0
 18 20  1  0
 18 21  2  0
 19 22  1  0
 20 23  2  0
 21 24  1  0
 23 24  1  0
 21 25  1  0
 22 25  2  0
 23 26  1  0
M  END
