mac-x0451-mac-x0255
     RDKit          3D

 24 27  0  0  0  0  0  0  0  0999 V2000
   -6.5860   14.8100    2.5210 N   0  0  0  0  0  0  0  0  0  0  0  0
   -5.7090   14.8320    1.4940 C   0  0  0  0  0  0  0  0  0  0  0  0
   -6.0510   15.0600    0.2480 N   0  0  0  0  0  0  0  0  0  0  0  0
   -4.0380   14.5610    1.7480 S   0  0  0  0  0  0  0  0  0  0  0  0
   -4.9280   15.0160   -0.5690 C   0  0  0  0  0  0  0  0  0  0  0  0
   -3.7370   14.7460    0.0940 C   0  0  0  0  0  0  0  0  0  0  0  0
   -4.8720   15.2120   -1.9660 C   0  0  0  0  0  0  0  0  0  0  0  0
   -2.5180   14.6490   -0.5550 C   0  0  0  0  0  0  0  0  0  0  0  0
   -3.6340   15.1150   -2.6520 C   0  0  0  0  0  0  0  0  0  0  0  0
   -2.4580   14.8240   -1.9320 C   0  0  0  0  0  0  0  0  0  0  0  0
   -1.1410   14.6520   -2.3650 O   0  0  0  0  0  0  0  0  0  0  0  0
   -0.5020   14.9950   -3.5120 C   0  0  0  0  0  0  0  0  0  0  0  0
    0.4780   14.1900   -4.0640 C   0  0  0  0  0  0  0  0  0  0  0  0
   -0.7470   16.1980   -4.2530 C   0  0  0  0  0  0  0  0  0  0  0  0
    1.1180   12.8700   -3.7020 C   0  0  0  0  0  0  0  0  0  0  0  0
    0.0370   16.2990   -5.3320 C   0  0  0  0  0  0  0  0  0  0  0  0
    1.0360   14.9330   -5.4500 S   0  0  0  0  0  0  0  0  0  0  0  0
   -1.6210   17.2340   -4.0470 C   0  0  0  0  0  0  0  0  0  0  0  0
    0.4520   12.0850   -2.6030 C   0  0  0  0  0  0  0  0  0  0  0  0
   -1.7030   18.3500   -4.8980 C   0  0  0  0  0  0  0  0  0  0  0  0
   -0.0320   17.4230   -6.1800 C   0  0  0  0  0  0  0  0  0  0  0  0
    0.6250   12.6250   -1.3680 O   0  0  0  0  0  0  0  0  0  0  0  0
   -0.1740   11.0490   -2.7010 O   0  0  0  0  0  0  0  0  0  0  0  0
   -0.9090   18.4340   -5.9540 C   0  0  0  0  0  0  0  0  0  0  0  0
  1  2  1  0
  2  3  2  0
  2  4  1  0
  3  5  1  0
  4  6  1  0
  5  6  2  0
  5  7  1  0
  6  8  1  0
  7  9  2  0
  8 10  2  0
  9 10  1  0
 10 11  1  0
 11 12  1  0
 12 13  2  0
 12 14  1  0
 13 15  1  0
 14 16  2  0
 13 17  1  0
 16 17  1  0
 14 18  1  0
 15 19  1  0
 18 20  2  0
 16 21  1  0
 19 22  1  0
 19 23  2  0
 20 24  1  0
 21 24  2  0
M  END
