mac-x0455-mac-x0319
     RDKit          3D

 22 23  0  0  0  0  0  0  0  0999 V2000
   -3.1140   14.0380   -2.1660 C   0  0  0  0  0  0  0  0  0  0  0  0
   -1.8220   14.0020   -2.9870 C   0  0  1  0  0  0  0  0  0  0  0  0
   -1.7930   15.2990   -3.6090 O   0  0  0  0  0  0  0  0  0  0  0  0
   -0.6690   13.8230   -1.9560 C   0  0  0  0  0  0  0  0  0  0  0  0
   -1.7380   12.8890   -4.0710 C   0  0  0  0  0  0  0  0  0  0  0  0
   -0.0500   14.7750   -1.4670 O   0  0  0  0  0  0  0  0  0  0  0  0
   -0.4630   12.4980   -1.6930 N   0  0  0  0  0  0  0  0  0  0  0  0
   -2.8260   12.0120   -4.2330 C   0  0  0  0  0  0  0  0  0  0  0  0
   -0.6230   12.6740   -4.9300 C   0  0  0  0  0  0  0  0  0  0  0  0
    0.4810   11.9160   -2.3410 C   0  0  0  0  0  0  0  0  0  0  0  0
   -2.8060   10.9860   -5.1870 C   0  0  0  0  0  0  0  0  0  0  0  0
   -0.6040   11.6470   -5.8840 C   0  0  0  0  0  0  0  0  0  0  0  0
    0.6860   10.5820   -2.1750 O   0  0  0  0  0  0  0  0  0  0  0  0
    1.3910   12.6740   -3.3200 C   0  0  0  0  0  0  0  0  0  0  0  0
   -1.6990   10.8040   -6.0080 C   0  0  0  0  0  0  0  0  0  0  0  0
    0.8250   13.9880   -3.8690 C   0  0  0  0  0  0  0  0  0  0  0  0
    1.4230   15.2390   -3.6260 C   0  0  0  0  0  0  0  0  0  0  0  0
   -0.3390   13.9690   -4.6460 C   0  0  0  0  0  0  0  0  0  0  0  0
    0.8430   16.4100   -4.1540 C   0  0  0  0  0  0  0  0  0  0  0  0
   -0.8970   15.1380   -5.1590 C   0  0  0  0  0  0  0  0  0  0  0  0
    1.3590   17.6530   -3.9520 O   0  0  0  0  0  0  0  0  0  0  0  0
   -0.3030   16.3590   -4.9120 C   0  0  0  0  0  0  0  0  0  0  0  0
  2  1  1  1
  2  3  1  0
  2  4  1  0
  2  5  1  0
  4  6  2  0
  4  7  1  0
  5  8  2  0
  5  9  1  0
  7 10  2  3
  8 11  1  0
  9 12  2  0
 10 13  1  0
 10 14  1  0
 11 15  2  0
 12 15  1  0
 14 16  1  0
 16 17  2  0
 16 18  1  0
 17 19  1  0
 18 20  2  0
 19 21  1  0
 19 22  2  0
 20 22  1  0
M  END
