mac-x0193-diamond-x0421_0_A
     RDKit          3D

 27 29  0  0  0  0  0  0  0  0999 V2000
    0.4370   10.5940   -3.1320 O   0  0  0  0  0  0  0  0  0  0  0  0
    0.6150   11.9280   -3.1900 C   0  0  0  0  0  0  0  0  0  0  0  0
    0.7680   12.6510   -2.1300 N   0  0  0  0  0  0  0  0  0  0  0  0
    0.6070   12.5050   -4.6080 C   0  0  0  0  0  0  0  0  0  0  0  0
    0.1210   11.5260   -5.5870 N   0  0  0  0  0  0  0  0  0  0  0  0
    0.9210   14.1000   -2.1180 C   0  0  0  0  0  0  0  0  0  0  0  0
    0.8200   11.3560   -6.7530 C   0  0  0  0  0  0  0  0  0  0  0  0
   -0.2740   14.7510   -1.3790 C   0  0  0  0  0  0  0  0  0  0  0  0
    1.9200   11.8320   -6.8890 O   0  0  0  0  0  0  0  0  0  0  0  0
    0.1510   10.5930   -7.7030 N   0  0  0  0  0  0  0  0  0  0  0  0
   -1.4690   14.8700   -2.2470 N   0  0  0  0  0  0  0  0  0  0  0  0
   -2.7210   14.9360   -1.8840 C   0  0  0  0  0  0  0  0  0  0  0  0
    0.8150   10.0980   -8.9200 C   0  0  0  0  0  0  0  0  0  0  0  0
   -3.6850   15.0590   -2.8380 N   0  0  0  0  0  0  0  0  0  0  0  0
    1.3840    8.6910   -8.6840 C   0  0  0  0  0  0  0  0  0  0  0  0
   -0.1180   10.1210  -10.1370 C   0  0  0  0  0  0  0  0  0  0  0  0
   -3.3380   14.9010   -0.5570 C   0  0  0  0  0  0  0  0  0  0  0  0
    2.0840    8.1150   -9.9150 C   0  0  0  0  0  0  0  0  0  0  0  0
    0.5930    9.5970  -11.3870 C   0  0  0  0  0  0  0  0  0  0  0  0
   -2.7190   14.9850    0.6770 C   0  0  0  0  0  0  0  0  0  0  0  0
   -4.7070   14.7690   -0.3930 N   0  0  0  0  0  0  0  0  0  0  0  0
    1.2030    8.2070  -11.1620 C   0  0  0  0  0  0  0  0  0  0  0  0
   -3.7350   14.9010    1.5900 N   0  0  0  0  0  0  0  0  0  0  0  0
   -4.9030   14.7690    0.9080 C   0  0  0  0  0  0  0  0  0  0  0  0
   -6.2770   14.6380    1.6240 C   0  0  0  0  0  0  0  0  0  0  0  0
   -7.5400   14.6620    0.8070 C   0  0  0  0  0  0  0  0  0  0  0  0
   -7.0880   13.3840    1.4450 C   0  0  0  0  0  0  0  0  0  0  0  0
  1  2  1  0
  2  3  2  3
  2  4  1  0
  4  5  1  0
  3  6  1  0
  5  7  1  0
  6  8  1  0
  7  9  2  0
  7 10  1  0
  8 11  1  0
 11 12  2  3
 10 13  1  0
 12 14  1  0
 13 15  1  0
 13 16  1  0
 12 17  1  0
 15 18  1  0
 16 19  1  0
 17 20  2  0
 17 21  1  0
 18 22  1  0
 19 22  1  0
 20 23  1  0
 21 24  2  0
 23 24  1  0
 24 25  1  0
 25 26  1  0
 25 27  1  0
 26 27  1  0
M  END
