mac-x0283-mac-x0161
     RDKit          3D

 22 25  0  0  0  0  0  0  0  0999 V2000
   -6.7220   14.4880    2.2440 N   0  0  0  0  0  0  0  0  0  0  0  0
   -6.4570   14.6940    0.9470 C   0  0  0  0  0  0  0  0  0  0  0  0
   -7.4030   14.8240    0.0120 N   0  0  0  0  0  0  0  0  0  0  0  0
   -5.1560   14.8090    0.3920 C   0  0  0  0  0  0  0  0  0  0  0  0
   -6.7260   15.0410   -1.1810 O   0  0  0  0  0  0  0  0  0  0  0  0
   -5.3950   15.0330   -0.9310 C   0  0  0  0  0  0  0  0  0  0  0  0
   -3.7730   14.7370    0.9550 C   0  0  0  0  0  0  0  0  0  0  0  0
   -4.4020   15.2470   -1.9990 C   0  0  0  0  0  0  0  0  0  0  0  0
   -2.5890   14.7660   -0.1280 C   0  0  1  0  0  0  0  0  0  0  0  0
   -3.0480   14.5530   -1.6360 C   0  0  2  0  0  0  0  0  0  0  0  0
   -1.8220   15.9660    0.2560 N   0  0  0  0  0  0  0  0  0  0  0  0
   -1.4880   13.7250    0.1350 C   0  0  0  0  0  0  0  0  0  0  0  0
   -1.9580   14.7790   -2.7560 C   0  0  0  0  0  0  0  0  0  0  0  0
   -0.2660   14.4500   -0.1540 N   0  0  0  0  0  0  0  0  0  0  0  0
   -0.5520   15.4900    0.7530 C   0  0  0  0  0  0  0  0  0  0  0  0
   -1.3380   13.5190   -3.2930 C   0  0  0  0  0  0  0  0  0  0  0  0
   -1.6280   12.7010   -4.3660 C   0  0  0  0  0  0  0  0  0  0  0  0
   -0.2570   12.9960   -2.6340 O   0  0  0  0  0  0  0  0  0  0  0  0
    0.1620   11.8310   -3.2640 N   0  0  0  0  0  0  0  0  0  0  0  0
   -0.6700   11.6730   -4.2910 C   0  0  0  0  0  0  0  0  0  0  0  0
   -0.5700   10.6230   -5.1400 O   0  0  0  0  0  0  0  0  0  0  0  0
   -1.7300   10.3880   -5.9290 C   0  0  0  0  0  0  0  0  0  0  0  0
  1  2  1  0
  2  3  2  0
  2  4  1  0
  3  5  1  0
  4  6  2  0
  5  6  1  0
  4  7  1  0
  6  8  1  0
  9  7  1  1
  8 10  1  0
  9 10  1  0
  9 11  1  0
  9 12  1  0
 10 13  1  6
 12 14  1  0
 11 15  1  0
 14 15  1  0
 13 16  1  0
 16 17  2  0
 16 18  1  0
 18 19  1  0
 17 20  1  0
 19 20  2  0
 20 21  1  0
 21 22  1  0
M  END
