mac-x0305-diamond-x0969_0_A
     RDKit          3D

 15 16  0  0  0  0  0  0  0  0999 V2000
   -0.3390   13.1400   -0.6650 O   0  0  0  0  0  0  0  0  0  0  0  0
   -0.6790   14.2390   -1.3890 C   0  0  0  0  0  0  0  0  0  0  0  0
   -0.1660   14.3940   -2.4940 O   0  0  0  0  0  0  0  0  0  0  0  0
   -1.6930   15.2090   -0.7320 C   0  0  2  0  0  0  0  0  0  0  0  0
   -2.1470   14.8740    0.7080 C   0  0  2  0  0  0  0  0  0  0  0  0
   -2.8980   15.4550   -1.6010 N   0  0  0  0  0  0  0  0  0  0  0  0
   -1.1250   14.4230    1.6060 O   0  0  0  0  0  0  0  0  0  0  0  0
   -3.2940   13.8570    0.6170 C   0  0  0  0  0  0  0  0  0  0  0  0
   -4.0760   15.7640   -0.7410 C   0  0  0  0  0  0  0  0  0  0  0  0
   -4.5640   14.4960   -0.0500 C   0  0  2  0  0  0  0  0  0  0  0  0
   -5.7820   14.3990    0.9230 C   0  0  1  0  0  0  0  0  0  0  0  0
   -5.2460   13.6760   -1.1300 C   0  0  0  0  0  0  0  0  0  0  0  0
   -5.8420   15.2160    2.0990 N   0  0  0  0  0  0  0  0  0  0  0  0
   -6.9310   14.7800    0.1060 N   0  0  0  0  0  0  0  0  0  0  0  0
   -6.5950   14.2940   -1.2450 N   0  0  0  0  0  0  0  0  0  0  0  0
  1  2  1  0
  2  3  2  0
  4  2  1  6
  4  5  1  0
  4  6  1  0
  5  7  1  1
  5  8  1  0
  6  9  1  0
 10  8  1  1
  9 10  1  0
 10 11  1  0
 10 12  1  0
 11 13  1  1
 11 14  1  0
 12 15  1  0
 14 15  1  0
M  END
