mac-x0357-mac-x0375
     RDKit          3D

 18 19  0  0  0  0  0  0  0  0999 V2000
    2.5010   12.5890   -4.3690 C   0  0  0  0  0  0  0  0  0  0  0  0
    1.0460   12.6520   -4.7680 C   0  0  0  0  0  0  0  0  0  0  0  0
    0.5100   12.1830   -5.9820 C   0  0  0  0  0  0  0  0  0  0  0  0
    0.1310   13.2050   -3.8730 C   0  0  0  0  0  0  0  0  0  0  0  0
    1.1430   11.5170   -6.9360 O   0  0  0  0  0  0  0  0  0  0  0  0
    0.5530   13.6210   -2.4890 C   0  0  0  0  0  0  0  0  0  0  0  0
   -1.2090   13.3440   -4.2510 C   0  0  0  0  0  0  0  0  0  0  0  0
   -0.8260   12.3190   -6.3290 C   0  0  0  0  0  0  0  0  0  0  0  0
   -0.4400   14.3860   -1.8770 O   0  0  0  0  0  0  0  0  0  0  0  0
    1.7800   14.2660   -2.4230 O   0  0  0  0  0  0  0  0  0  0  0  0
    0.7420   12.3770   -1.7980 O   0  0  0  0  0  0  0  0  0  0  0  0
   -1.6920   12.9150   -5.4690 C   0  0  0  0  0  0  0  0  0  0  0  0
    0.1440   10.5330   -6.9000 C   0  0  0  0  0  0  0  0  0  0  0  0
    0.0150    9.3790   -7.6520 C   0  0  0  0  0  0  0  0  0  0  0  0
   -0.8500   10.8160   -5.9300 C   0  0  0  0  0  0  0  0  0  0  0  0
   -1.0890    8.5320   -7.4390 C   0  0  0  0  0  0  0  0  0  0  0  0
   -1.9420    9.9770   -5.7260 C   0  0  0  0  0  0  0  0  0  0  0  0
   -2.0640    8.8320   -6.4810 C   0  0  0  0  0  0  0  0  0  0  0  0
  1  2  1  0
  2  3  2  0
  2  4  1  0
  3  5  1  0
  4  6  1  0
  4  7  2  0
  3  8  1  0
  6  9  1  0
  6 10  1  0
  6 11  1  0
  7 12  1  0
  8 12  2  0
  5 13  1  0
 13 14  2  0
 13 15  1  0
 14 16  1  0
 15 17  2  0
 16 18  2  0
 17 18  1  0
M  END
