mac-x0346-diamond-x0962_0_A
     RDKit          3D

 12 12  0  0  0  0  0  0  0  0999 V2000
   -7.5650   14.1620    1.1150 O   0  0  0  0  0  0  0  0  0  0  0  0
   -7.5850   14.9600   -0.0490 N   0  0  0  0  0  0  0  0  0  0  0  0
   -6.4790   15.0180   -0.8740 C   0  0  0  0  0  0  0  0  0  0  0  0
   -6.5920   15.0050   -2.0890 O   0  0  0  0  0  0  0  0  0  0  0  0
   -5.1280   15.0830   -0.2690 C   0  0  0  0  0  0  0  0  0  0  0  0
   -3.9520   15.0050   -1.0310 C   0  0  0  0  0  0  0  0  0  0  0  0
   -5.0250   15.2240    1.1200 C   0  0  0  0  0  0  0  0  0  0  0  0
   -3.8770   14.8720   -2.4410 C   0  0  0  0  0  0  0  0  0  0  0  0
   -2.7150   15.0590   -0.3990 C   0  0  0  0  0  0  0  0  0  0  0  0
   -3.7730   15.2890    1.7270 C   0  0  0  0  0  0  0  0  0  0  0  0
   -3.6700   14.7800   -3.5670 N   0  0  0  0  0  0  0  0  0  0  0  0
   -2.6190   15.2020    0.9710 C   0  0  0  0  0  0  0  0  0  0  0  0
  1  2  1  0
  2  3  1  0
  3  4  2  0
  3  5  1  0
  5  6  2  0
  5  7  1  0
  6  8  1  0
  6  9  1  0
  7 10  2  0
  8 11  3  0
  9 12  2  0
 10 12  1  0
M  END
