mac-x0163-mac-x0439
     RDKit          3D

 30 34  0  0  0  0  0  0  0  0999 V2000
   -3.8640   15.3060   -1.4540 Cl  0  0  0  0  0  0  0  0  0  0  0  0
   -2.6440   14.9140   -0.2830 C   0  0  0  0  0  0  0  0  0  0  0  0
   -2.9350   14.8800    1.0690 C   0  0  0  0  0  0  0  0  0  0  0  0
   -1.3240   14.6270   -0.5950 C   0  0  0  0  0  0  0  0  0  0  0  0
   -4.2080   15.1700    1.5590 N   0  0  0  0  0  0  0  0  0  0  0  0
   -0.3940   14.3150    0.3170 N   0  0  0  0  0  0  0  0  0  0  0  0
   -2.0040   14.5710    1.9980 N   0  0  0  0  0  0  0  0  0  0  0  0
   -0.8090   14.6530   -1.8820 N   0  0  0  0  0  0  0  0  0  0  0  0
   -0.7760   14.2980    1.5660 C   0  0  0  0  0  0  0  0  0  0  0  0
   -0.7180   13.5680   -2.8660 C   0  0  0  0  0  0  0  0  0  0  0  0
    0.6270   14.6330   -1.7300 C   0  0  0  0  0  0  0  0  0  0  0  0
    0.5780   13.1710   -2.1240 C   0  0  2  0  0  0  0  0  0  0  0  0
   -0.3420   14.1330   -4.2530 C   0  0  0  0  0  0  0  0  0  0  0  0
   -1.8590   12.5710   -3.0330 C   0  0  0  0  0  0  0  0  0  0  0  0
    1.6720   12.9240   -2.9970 N   0  0  0  0  0  0  0  0  0  0  0  0
   -0.2190   13.0510   -5.2980 C   0  0  0  0  0  0  0  0  0  0  0  0
   -2.5360   12.8070   -4.3890 C   0  0  0  0  0  0  0  0  0  0  0  0
    1.9220   13.7750   -3.9280 C   0  0  0  0  0  0  0  0  0  0  0  0
   -1.6050   12.5330   -5.5760 C   0  0  0  0  0  0  0  0  0  0  0  0
    2.9580   13.5600   -4.7380 O   0  0  0  0  0  0  0  0  0  0  0  0
    1.1650   15.0720   -4.2840 C   0  0  0  0  0  0  0  0  0  0  0  0
   -0.0110   15.5240   -3.7840 C   0  0  0  0  0  0  0  0  0  0  0  0
    1.6490   15.9600   -5.2120 N   0  0  0  0  0  0  0  0  0  0  0  0
   -0.3760   16.8320   -4.4070 C   0  0  1  0  0  0  0  0  0  0  0  0
    0.8250   16.9460   -5.2540 C   0  0  0  0  0  0  0  0  0  0  0  0
   -1.5440   16.9910   -5.3220 C   0  0  0  0  0  0  0  0  0  0  0  0
    0.9240   18.1910   -6.0410 C   0  0  0  0  0  0  0  0  0  0  0  0
   -2.9590   16.0390   -5.0780 Cl  0  0  0  0  0  0  0  0  0  0  0  0
   -1.4630   17.8760   -6.3380 C   0  0  0  0  0  0  0  0  0  0  0  0
   -0.2390   18.6270   -6.5520 C   0  0  0  0  0  0  0  0  0  0  0  0
  1  2  1  0
  2  3  2  0
  2  4  1  0
  3  5  1  0
  4  6  2  0
  3  7  1  0
  4  8  1  0
  6  9  1  0
  7  9  2  0
 10  8  1  0
  8 11  1  0
 10 12  1  0
 11 12  1  0
 10 13  1  0
 10 14  1  0
 12 15  1  6
 13 16  1  0
 14 17  1  0
 15 18  2  3
 16 19  1  0
 17 19  1  0
 18 20  1  0
 18 21  1  0
 21 22  2  0
 21 23  1  0
 24 22  1  6
 23 25  2  0
 24 25  1  0
 24 26  1  0
 25 27  1  0
 26 28  1  0
 26 29  2  0
 27 30  2  0
 29 30  1  0
M  END
