mac-x0271-mac-x0433
     RDKit          3D

 14 15  0  0  0  0  0  0  0  0999 V2000
   -3.5630   15.4030   -2.8110 O   0  0  0  0  0  0  0  0  0  0  0  0
   -4.2880   15.2610   -1.6530 C   0  0  0  0  0  0  0  0  0  0  0  0
   -3.6390   15.2920   -0.4030 C   0  0  0  0  0  0  0  0  0  0  0  0
   -5.6790   15.0870   -1.7620 C   0  0  0  0  0  0  0  0  0  0  0  0
   -2.1660   15.4870   -0.2680 C   0  0  0  0  0  0  0  0  0  0  0  0
   -6.2630   15.0640   -3.0650 N   0  0  0  0  0  0  0  0  0  0  0  0
   -6.4100   14.9370   -0.5700 C   0  0  0  0  0  0  0  0  0  0  0  0
   -4.3970   15.1360    0.7500 C   0  0  0  0  0  0  0  0  0  0  0  0
   -5.7730   14.9560    0.6740 C   0  0  0  0  0  0  0  0  0  0  0  0
   -7.8100   14.7590   -0.6370 O   0  0  0  0  0  0  0  0  0  0  0  0
   -6.5600   14.7870    1.8820 C   0  0  0  0  0  0  0  0  0  0  0  0
   -8.5940   14.8160    0.5170 C   0  0  0  0  0  0  0  0  0  0  0  0
   -9.8150   14.9380    0.4860 O   0  0  0  0  0  0  0  0  0  0  0  0
   -7.8860   14.7220    1.8030 C   0  0  0  0  0  0  0  0  0  0  0  0
  1  2  1  0
  2  3  2  0
  2  4  1  0
  3  5  1  0
  4  6  1  0
  4  7  2  0
  3  8  1  0
  7  9  1  0
  8  9  2  0
  7 10  1  0
  9 11  1  0
 10 12  1  0
 12 13  2  0
 11 14  2  0
 12 14  1  0
M  END
