mac-x0321-mac-x0159
     RDKit          3D

 20 22  0  0  0  0  0  0  0  0999 V2000
   -4.5240   15.0850    1.8040 Cl  0  0  0  0  0  0  0  0  0  0  0  0
   -3.9270   15.6670    0.2390 C   0  0  1  0  0  0  0  0  0  0  0  0
   -2.5900   14.9510   -0.2470 C   0  0  2  0  0  0  0  0  0  0  0  0
   -5.1200   15.6770   -0.7320 C   0  0  0  0  0  0  0  0  0  0  0  0
   -2.8500   14.7200   -1.7510 C   0  0  0  0  0  0  0  0  0  0  0  0
   -5.2130   14.9270   -1.8400 C   0  0  0  0  0  0  0  0  0  0  0  0
   -2.0760   13.8460    0.6130 N   0  0  0  0  0  0  0  0  0  0  0  0
   -1.3560   15.8610   -0.1580 C   0  0  0  0  0  0  0  0  0  0  0  0
   -1.7920   15.1930   -2.6890 C   0  0  0  0  0  0  0  0  0  0  0  0
   -4.1030   14.0040   -2.2160 C   0  0  0  0  0  0  0  0  0  0  0  0
   -0.2360   14.9410   -0.1590 N   0  0  0  0  0  0  0  0  0  0  0  0
   -0.6750   14.1380    0.9450 C   0  0  0  0  0  0  0  0  0  0  0  0
   -0.5180   14.9650   -2.2860 O   0  0  0  0  0  0  0  0  0  0  0  0
   -1.9760   15.8370   -3.7430 N   0  0  0  0  0  0  0  0  0  0  0  0
   -1.0190   16.4380   -4.4910 C   0  0  0  0  0  0  0  0  0  0  0  0
    0.3400   16.2580   -4.4120 C   0  0  0  0  0  0  0  0  0  0  0  0
   -1.4640   17.3430   -5.3940 N   0  0  0  0  0  0  0  0  0  0  0  0
   -0.4740   17.8830   -6.0180 C   0  0  0  0  0  0  0  0  0  0  0  0
    1.0600   17.3140   -5.5510 S   0  0  0  0  0  0  0  0  0  0  0  0
   -0.6320   18.9180   -7.0680 C   0  0  0  0  0  0  0  0  0  0  0  0
  2  1  1  1
  2  3  1  0
  2  4  1  0
  3  5  1  0
  4  6  2  0
  3  7  1  0
  3  8  1  6
  5  9  1  0
  5 10  1  0
  6 10  1  0
  8 11  1  0
  7 12  1  0
 11 12  1  0
  9 13  1  0
  9 14  2  3
 14 15  1  0
 15 16  2  0
 15 17  1  0
 17 18  2  0
 16 19  1  0
 18 19  1  0
 18 20  1  0
M  END
