mac-x0204-mac-x0178
     RDKit          3D

 14 14  0  0  0  0  0  0  0  0999 V2000
    0.1970   12.9370   -2.0150 O   0  0  0  0  0  0  0  0  0  0  0  0
    0.2120   14.0930   -2.7420 C   0  0  0  0  0  0  0  0  0  0  0  0
    1.0560   14.9570   -2.5770 O   0  0  0  0  0  0  0  0  0  0  0  0
    0.4300   11.7900   -2.9130 O   0  0  0  0  0  0  0  0  0  0  0  0
   -0.8930   14.1590   -3.7320 C   0  0  0  0  0  0  0  0  0  0  0  0
   -1.2700   15.3380   -4.3960 C   0  0  0  0  0  0  0  0  0  0  0  0
   -1.5960   12.9900   -4.0200 C   0  0  0  0  0  0  0  0  0  0  0  0
   -2.3210   15.3050   -5.3130 C   0  0  0  0  0  0  0  0  0  0  0  0
   -2.6230   12.9240   -4.9050 N   0  0  0  0  0  0  0  0  0  0  0  0
   -2.7370   16.5220   -6.0300 N   0  0  0  0  0  0  0  0  0  0  0  0
   -2.9600   14.0820   -5.5290 C   0  0  0  0  0  0  0  0  0  0  0  0
   -2.0390   17.8710   -5.8270 S   0  0  0  0  0  0  0  0  0  0  0  0
   -0.4130   17.6450   -6.1600 N   0  0  0  0  0  0  0  0  0  0  0  0
   -2.0130   18.6740   -4.6420 O   0  0  0  0  0  0  0  0  0  0  0  0
  1  2  1  0
  2  3  2  0
  1  4  1  0
  2  5  1  0
  5  6  2  0
  5  7  1  0
  6  8  1  0
  7  9  2  0
  8 10  1  0
  8 11  2  0
  9 11  1  0
 10 12  2  0
 12 13  1  0
 12 14  2  0
M  END
