mac-x0565-diamond-x0282_0_A
     RDKit          3D

 25 28  0  0  0  0  0  0  0  0999 V2000
   -7.6280   16.8520   -1.3060 O   0  0  0  0  0  0  0  0  0  0  0  0
   -7.1530   15.6440   -1.0350 C   0  0  0  0  0  0  0  0  0  0  0  0
   -7.8270   15.0300   -0.1270 N   0  0  0  0  0  0  0  0  0  0  0  0
   -5.9530   15.3280   -1.8810 C   0  0  0  0  0  0  0  0  0  0  0  0
   -7.4450   13.7320    0.3240 C   0  0  0  0  0  0  0  0  0  0  0  0
   -4.6140   15.5200   -1.4580 C   0  0  0  0  0  0  0  0  0  0  0  0
   -6.2130   14.8220   -3.1680 C   0  0  0  0  0  0  0  0  0  0  0  0
   -3.6040   15.1890   -2.3740 C   0  0  0  0  0  0  0  0  0  0  0  0
   -5.1710   14.5090   -4.0500 C   0  0  0  0  0  0  0  0  0  0  0  0
   -5.9530   13.8580    0.3360 C   0  0  0  0  0  0  0  0  0  0  0  0
   -3.8820   14.7060   -3.6290 C   0  0  0  0  0  0  0  0  0  0  0  0
   -2.2630   15.2870   -2.1840 O   0  0  0  0  0  0  0  0  0  0  0  0
   -5.3790   13.7110    1.7200 C   0  0  0  0  0  0  0  0  0  0  0  0
   -5.2990   12.9090   -0.6270 C   0  0  0  0  0  0  0  0  0  0  0  0
   -2.7600   14.4580   -4.3730 O   0  0  0  0  0  0  0  0  0  0  0  0
   -1.7290   14.8200   -3.4410 C   0  0  0  0  0  0  0  0  0  0  0  0
   -3.8880   13.9940    1.7350 C   0  0  0  0  0  0  0  0  0  0  0  0
   -3.8140   13.1910   -0.6680 C   0  0  0  0  0  0  0  0  0  0  0  0
   -3.3720   14.1000    0.3960 N   0  0  0  0  0  0  0  0  0  0  0  0
   -2.0390   14.3550    0.3080 C   0  0  0  0  0  0  0  0  0  0  0  0
   -1.5390   14.4660   -0.9190 N   0  0  0  0  0  0  0  0  0  0  0  0
   -1.3110   14.4760    1.4310 N   0  0  0  0  0  0  0  0  0  0  0  0
   -0.2520   14.7210   -1.0630 C   0  0  0  0  0  0  0  0  0  0  0  0
   -0.0190   14.7250    1.2240 C   0  0  0  0  0  0  0  0  0  0  0  0
    0.5650   14.8650   -0.0110 C   0  0  0  0  0  0  0  0  0  0  0  0
  1  2  1  0
  2  3  2  3
  2  4  1  0
  3  5  1  0
  4  6  2  0
  4  7  1  0
  6  8  1  0
  7  9  2  0
  5 10  1  0
  8 11  2  0
  9 11  1  0
  8 12  1  0
 10 13  1  0
 10 14  1  0
 11 15  1  0
 12 16  1  0
 15 16  1  0
 13 17  1  0
 14 18  1  0
 17 19  1  0
 18 19  1  0
 19 20  1  0
 20 21  2  0
 20 22  1  0
 21 23  1  0
 22 24  2  0
 23 25  2  0
 24 25  1  0
M  END
