mac-x1493-mac-x0587
     RDKit          3D

 21 22  0  0  0  0  0  0  0  0999 V2000
   -1.1450   15.0410   -1.2990 O   0  0  0  0  0  0  0  0  0  0  0  0
   -2.1090   14.5340   -2.1990 C   0  0  2  0  0  0  0  0  0  0  0  0
   -1.8860   15.0340   -3.6230 C   0  0  0  0  0  0  0  0  0  0  0  0
   -3.5000   14.6120   -1.6300 C   0  0  0  0  0  0  0  0  0  0  0  0
   -0.4150   15.0060   -4.0550 C   0  0  2  0  0  0  0  0  0  0  0  0
   -2.8220   15.4130   -4.3410 O   0  0  0  0  0  0  0  0  0  0  0  0
   -3.6940   14.8010   -0.2690 C   0  0  0  0  0  0  0  0  0  0  0  0
   -4.6440   14.4790   -2.4120 C   0  0  0  0  0  0  0  0  0  0  0  0
    0.0590   16.3500   -4.5830 C   0  0  0  0  0  0  0  0  0  0  0  0
   -0.0850   13.5570   -5.1560 S   0  0  0  0  0  0  0  0  0  0  0  0
   -4.9790   14.8130    0.2560 C   0  0  0  0  0  0  0  0  0  0  0  0
   -5.9100   14.4970   -1.9260 N   0  0  0  0  0  0  0  0  0  0  0  0
   -0.5860   12.1120   -4.1530 C   0  0  0  0  0  0  0  0  0  0  0  0
   -6.0720   14.6470   -0.6010 C   0  0  0  0  0  0  0  0  0  0  0  0
   -5.1730   14.9750    1.6140 C   0  0  0  0  0  0  0  0  0  0  0  0
    0.4520   11.6030   -3.1680 C   0  0  0  0  0  0  0  0  0  0  0  0
   -7.3500   14.6320   -0.0460 C   0  0  0  0  0  0  0  0  0  0  0  0
   -6.4590   14.9470    2.1620 C   0  0  0  0  0  0  0  0  0  0  0  0
    0.5550   10.4480   -2.7920 O   0  0  0  0  0  0  0  0  0  0  0  0
    1.2860   12.5720   -2.7050 O   0  0  0  0  0  0  0  0  0  0  0  0
   -7.5520   14.7730    1.3300 C   0  0  0  0  0  0  0  0  0  0  0  0
  2  1  1  1
  2  3  1  0
  2  4  1  0
  3  5  1  0
  3  6  2  0
  4  7  2  0
  4  8  1  0
  5  9  1  6
  5 10  1  0
  7 11  1  0
  8 12  2  0
 10 13  1  0
 11 14  2  0
 12 14  1  0
 11 15  1  0
 13 16  1  0
 14 17  1  0
 15 18  2  0
 16 19  2  0
 16 20  1  0
 17 21  2  0
 18 21  1  0
M  END
