mac-x0576-diamond-x0855_0_A
     RDKit          3D

 25 27  0  0  0  0  0  0  0  0999 V2000
    0.1200   14.2270    1.9960 N   0  0  0  0  0  0  0  0  0  0  0  0
   -0.8470   14.1980    0.9510 C   0  0  1  0  0  0  0  0  0  0  0  0
   -2.0720   14.5280    1.6060 N   0  0  0  0  0  0  0  0  0  0  0  0
   -0.5950   14.8480   -0.2660 N   0  0  0  0  0  0  0  0  0  0  0  0
   -1.5290   14.7160   -1.2480 C   0  0  0  0  0  0  0  0  0  0  0  0
   -3.1740   14.2440    0.7170 C   0  0  2  0  0  0  0  0  0  0  0  0
   -1.0710   14.7680   -2.4570 N   0  0  0  0  0  0  0  0  0  0  0  0
   -3.0090   14.5140   -0.8140 C   0  0  1  0  0  0  0  0  0  0  0  0
   -4.3500   14.7820    1.3170 N   0  0  0  0  0  0  0  0  0  0  0  0
    0.3630   14.9570   -2.7150 C   0  0  0  0  0  0  0  0  0  0  0  0
   -5.4710   14.9970    0.5870 C   0  0  0  0  0  0  0  0  0  0  0  0
   -3.8850   15.6140   -1.2910 N   0  0  0  0  0  0  0  0  0  0  0  0
   -6.5820   14.8300    1.0910 O   0  0  0  0  0  0  0  0  0  0  0  0
    1.1930   13.9540   -1.8890 C   0  0  0  0  0  0  0  0  0  0  0  0
   -5.2950   15.4430   -0.8650 C   0  0  0  0  0  0  0  0  0  0  0  0
    1.8290   12.9540   -2.7140 O   0  0  0  0  0  0  0  0  0  0  0  0
    1.0160   12.0720   -3.3320 C   0  0  0  0  0  0  0  0  0  0  0  0
    0.6140   11.0280   -2.8160 O   0  0  0  0  0  0  0  0  0  0  0  0
    0.6370   12.4690   -4.7290 C   0  0  0  0  0  0  0  0  0  0  0  0
   -0.4430   11.6410   -5.2170 N   0  0  0  0  0  0  0  0  0  0  0  0
   -0.3450   10.6860   -6.1840 C   0  0  0  0  0  0  0  0  0  0  0  0
   -1.6930   11.7700   -4.7000 N   0  0  0  0  0  0  0  0  0  0  0  0
   -1.5980   10.1560   -6.2940 C   0  0  0  0  0  0  0  0  0  0  0  0
   -2.3910   10.8480   -5.3730 C   0  0  0  0  0  0  0  0  0  0  0  0
   -2.1680    8.7930   -7.4250 Br  0  0  0  0  0  0  0  0  0  0  0  0
  2  1  1  1
  2  3  1  0
  2  4  1  0
  4  5  1  0
  6  3  1  1
  5  7  2  3
  5  8  1  0
  6  8  1  0
  6  9  1  0
  7 10  1  0
  9 11  1  0
  8 12  1  1
 11 13  2  0
 10 14  1  0
 11 15  1  0
 12 15  1  0
 14 16  1  0
 16 17  1  0
 17 18  2  0
 17 19  1  0
 19 20  1  0
 20 21  1  0
 20 22  1  0
 21 23  2  0
 22 24  2  0
 23 24  1  0
 23 25  1  0
M  END
