mac-x0373-mac-x0123
     RDKit          3D

 25 28  0  0  0  0  0  0  0  0999 V2000
    0.4720   12.6170   -1.4150 O   0  0  0  0  0  0  0  0  0  0  0  0
    0.0490   13.8240   -1.8960 C   0  0  0  0  0  0  0  0  0  0  0  0
    0.8240   14.7670   -2.0230 O   0  0  0  0  0  0  0  0  0  0  0  0
   -1.4400   13.8470   -2.2330 C   0  0  2  0  0  0  0  0  0  0  0  0
   -1.7740   12.9620   -3.4210 C   0  0  0  0  0  0  0  0  0  0  0  0
   -1.9730   15.2840   -1.9610 C   0  0  1  0  0  0  0  0  0  0  0  0
   -1.1470   13.0560   -4.6750 C   0  0  0  0  0  0  0  0  0  0  0  0
   -2.7550   11.9830   -3.2240 C   0  0  0  0  0  0  0  0  0  0  0  0
   -3.4150   15.7460   -2.1900 C   0  0  0  0  0  0  0  0  0  0  0  0
   -1.7000   15.2990   -0.4900 C   0  0  0  0  0  0  0  0  0  0  0  0
   -1.5020   12.1780   -5.7010 C   0  0  0  0  0  0  0  0  0  0  0  0
   -3.1050   11.1140   -4.2450 C   0  0  0  0  0  0  0  0  0  0  0  0
   -4.4020   15.5480   -1.2810 C   0  0  0  0  0  0  0  0  0  0  0  0
   -2.6490   15.0350    0.3870 C   0  0  0  0  0  0  0  0  0  0  0  0
   -2.4800   11.2080   -5.4830 C   0  0  0  0  0  0  0  0  0  0  0  0
   -4.0870   14.7570   -0.0150 C   0  0  1  0  0  0  0  0  0  0  0  0
   -4.9230   14.8200    1.2800 C   0  0  1  0  0  0  0  0  0  0  0  0
   -4.5270   13.3940   -0.6230 C   0  0  0  0  0  0  0  0  0  0  0  0
   -4.5190   15.9030    2.1680 N   0  0  0  0  0  0  0  0  0  0  0  0
   -5.9960   13.2880   -0.8860 N   0  0  0  0  0  0  0  0  0  0  0  0
   -6.4090   14.6750    1.0510 C   0  0  1  0  0  0  0  0  0  0  0  0
   -6.7650   13.4080    0.3530 C   0  0  1  0  0  0  0  0  0  0  0  0
   -7.3230   14.5750    2.2800 C   0  0  0  0  0  0  0  0  0  0  0  0
   -8.2640   13.7040    0.2190 C   0  0  0  0  0  0  0  0  0  0  0  0
   -8.6480   14.1910    1.6310 C   0  0  0  0  0  0  0  0  0  0  0  0
  1  2  1  0
  2  3  2  0
  4  2  1  6
  4  5  1  0
  4  6  1  0
  5  7  2  0
  5  8  1  0
  6  9  1  1
  6 10  1  0
  7 11  1  0
  8 12  2  0
  9 13  2  0
 10 14  2  0
 11 15  2  0
 12 15  1  0
 16 13  1  6
 14 16  1  0
 16 17  1  0
 16 18  1  0
 17 19  1  6
 18 20  1  0
 17 21  1  0
 20 22  1  0
 21 22  1  0
 21 23  1  1
 22 24  1  6
 23 25  1  0
 24 25  1  0
M  END
