mac-x0338-mac-x0124
     RDKit          3D

 19 21  0  0  0  0  0  0  0  0999 V2000
   -3.8670   15.2670    1.6880 N   0  0  0  0  0  0  0  0  0  0  0  0
   -5.0300   15.0500    1.0060 C   0  0  0  0  0  0  0  0  0  0  0  0
   -6.1340   15.0290    1.5580 O   0  0  0  0  0  0  0  0  0  0  0  0
   -2.5890   15.1360    1.0790 C   0  0  0  0  0  0  0  0  0  0  0  0
   -4.9270   14.8260   -0.4340 C   0  0  0  0  0  0  0  0  0  0  0  0
   -2.3830   15.3950   -0.3020 C   0  0  0  0  0  0  0  0  0  0  0  0
   -1.5290   14.7440    1.8050 N   0  0  0  0  0  0  0  0  0  0  0  0
   -3.7930   14.2130   -0.8640 N   0  0  0  0  0  0  0  0  0  0  0  0
   -5.9340   15.2280   -1.2930 C   0  0  0  0  0  0  0  0  0  0  0  0
   -3.1530   15.8170   -1.4270 C   0  0  0  0  0  0  0  0  0  0  0  0
   -1.0880   15.2100   -0.7950 C   0  0  0  0  0  0  0  0  0  0  0  0
   -0.3390   14.6130    1.1920 C   0  0  0  0  0  0  0  0  0  0  0  0
   -3.7080   14.0310   -2.1930 C   0  0  0  0  0  0  0  0  0  0  0  0
   -5.8420   15.0330   -2.6320 N   0  0  0  0  0  0  0  0  0  0  0  0
   -1.0800   15.4910   -2.1340 N   0  0  0  0  0  0  0  0  0  0  0  0
   -2.3290   15.8610   -2.5360 C   0  0  0  0  0  0  0  0  0  0  0  0
   -0.0210   14.8180   -0.0960 N   0  0  0  0  0  0  0  0  0  0  0  0
    0.0880   15.4040   -2.9820 C   0  0  0  0  0  0  0  0  0  0  0  0
   -4.7060   14.4310   -3.0610 C   0  0  0  0  0  0  0  0  0  0  0  0
  1  2  1  0
  2  3  2  0
  1  4  1  0
  2  5  1  0
  4  6  1  0
  4  7  2  0
  5  8  2  0
  5  9  1  0
  6 10  1  0
  6 11  2  0
  7 12  1  0
  8 13  1  0
  9 14  2  0
 11 15  1  0
 10 16  2  0
 15 16  1  0
 11 17  1  0
 12 17  2  0
 15 18  1  0
 13 19  2  0
 14 19  1  0
M  END
