mac-x0555-mac-x0206
     RDKit          3D

 15 16  0  0  0  0  0  0  0  0999 V2000
   -7.0250   13.3510    2.4330 N   0  0  0  0  0  0  0  0  0  0  0  0
   -6.7320   14.3200    1.3660 C   0  0  2  0  0  0  0  0  0  0  0  0
   -7.4430   13.9580    0.0610 C   0  0  0  0  0  0  0  0  0  0  0  0
   -5.2190   14.5380    1.0710 C   0  0  1  0  0  0  0  0  0  0  0  0
   -4.4240   13.4990    0.3050 C   0  0  0  0  0  0  0  0  0  0  0  0
   -4.9970   15.3620   -0.1220 C   0  0  1  0  0  0  0  0  0  0  0  0
   -7.4350   15.0880   -0.8870 N   0  0  0  0  0  0  0  0  0  0  0  0
   -3.0730   13.6180    0.4650 N   0  0  0  0  0  0  0  0  0  0  0  0
   -4.8760   12.6880   -0.4880 O   0  0  0  0  0  0  0  0  0  0  0  0
   -7.8080   14.4800   -2.1550 O   0  0  0  0  0  0  0  0  0  0  0  0
   -6.1130   15.7450   -1.0940 C   0  0  2  0  0  0  0  0  0  0  0  0
   -3.6320   15.9090   -0.3410 C   0  0  0  0  0  0  0  0  0  0  0  0
   -5.4950   15.3420   -2.4230 C   0  0  0  0  0  0  0  0  0  0  0  0
   -3.2330   15.9020   -1.6100 C   0  0  0  0  0  0  0  0  0  0  0  0
   -4.1510   15.4180   -2.6340 C   0  0  0  0  0  0  0  0  0  0  0  0
  2  1  1  1
  2  3  1  0
  2  4  1  0
  4  5  1  6
  4  6  1  0
  3  7  1  0
  5  8  1  0
  5  9  2  0
  7 10  1  0
  6 11  1  0
  7 11  1  0
  6 12  1  1
 11 13  1  6
 12 14  2  0
 13 15  2  0
 14 15  1  0
M  END
