mac-x0180-mac-x0223
     RDKit          3D

 26 27  0  0  0  0  0  0  0  0999 V2000
   -7.8190   14.4980    1.4530 C   0  0  0  0  0  0  0  0  0  0  0  0
   -6.7980   14.6960    0.3610 C   0  0  0  0  0  0  0  0  0  0  0  0
   -7.1470   14.7540   -0.8110 O   0  0  0  0  0  0  0  0  0  0  0  0
   -5.5080   14.8030    0.8580 N   0  0  0  0  0  0  0  0  0  0  0  0
   -4.3360   14.9800    0.0920 C   0  0  0  0  0  0  0  0  0  0  0  0
   -3.0680   15.0310    0.6580 C   0  0  0  0  0  0  0  0  0  0  0  0
   -4.4670   15.1040   -1.2980 C   0  0  0  0  0  0  0  0  0  0  0  0
   -1.9420   15.2010   -0.1480 C   0  0  0  0  0  0  0  0  0  0  0  0
   -3.3390   15.2740   -2.1060 C   0  0  0  0  0  0  0  0  0  0  0  0
   -2.0630   15.3200   -1.5300 C   0  0  0  0  0  0  0  0  0  0  0  0
   -0.8210   15.4930   -2.3590 C   0  0  0  0  0  0  0  0  0  0  0  0
    0.3550   15.2840   -1.5820 O   0  0  0  0  0  0  0  0  0  0  0  0
    1.3130   14.3980   -2.1700 C   0  0  0  0  0  0  0  0  0  0  0  0
    0.8370   13.0530   -2.1250 O   0  0  0  0  0  0  0  0  0  0  0  0
    0.5630   12.4250   -3.3160 C   0  0  0  0  0  0  0  0  0  0  0  0
    0.7930   13.3130   -4.5360 C   0  0  0  0  0  0  0  0  0  0  0  0
    0.1810   11.2670   -3.3580 O   0  0  0  0  0  0  0  0  0  0  0  0
   -0.0770   14.5560   -4.6350 C   0  0  0  0  0  0  0  0  0  0  0  0
   -1.4840   14.4720   -4.6980 C   0  0  0  0  0  0  0  0  0  0  0  0
    0.5290   15.8220   -4.6620 C   0  0  0  0  0  0  0  0  0  0  0  0
   -0.2470   16.9810   -4.7410 C   0  0  0  0  0  0  0  0  0  0  0  0
   -2.2610   15.6400   -4.7770 C   0  0  0  0  0  0  0  0  0  0  0  0
    0.2340   18.2460   -4.7720 O   0  0  0  0  0  0  0  0  0  0  0  0
   -1.6260   16.8810   -4.7930 C   0  0  0  0  0  0  0  0  0  0  0  0
    1.2410   18.4650   -5.7260 C   0  0  0  0  0  0  0  0  0  0  0  0
   -2.3310   18.0550   -4.8580 O   0  0  0  0  0  0  0  0  0  0  0  0
  1  2  1  0
  2  3  2  0
  2  4  1  0
  4  5  1  0
  5  6  2  0
  5  7  1  0
  6  8  1  0
  7  9  2  0
  8 10  2  0
  9 10  1  0
 10 11  1  0
 11 12  1  0
 12 13  1  0
 13 14  1  0
 14 15  1  0
 15 16  1  0
 15 17  2  0
 16 18  1  0
 18 19  2  0
 18 20  1  0
 20 21  2  0
 19 22  1  0
 21 23  1  0
 21 24  1  0
 22 24  2  0
 23 25  1  0
 24 26  1  0
M  END
