mac-x0455-mac-x0326
     RDKit          3D

 25 27  0  0  0  0  0  0  0  0999 V2000
    0.5400   15.4070   -5.0060 C   0  0  0  0  0  0  0  0  0  0  0  0
   -0.3470   14.5060   -4.1880 C   0  0  2  0  0  0  0  0  0  0  0  0
   -1.5730   15.2650   -4.1420 O   0  0  0  0  0  0  0  0  0  0  0  0
    0.2420   14.2340   -2.7390 C   0  0  2  0  0  0  0  0  0  0  0  0
   -0.6420   13.1660   -4.8930 C   0  0  0  0  0  0  0  0  0  0  0  0
    1.3220   15.0700   -2.3180 O   0  0  0  0  0  0  0  0  0  0  0  0
    0.3890   12.8450   -2.4800 N   0  0  0  0  0  0  0  0  0  0  0  0
   -1.7450   12.3560   -4.5250 C   0  0  0  0  0  0  0  0  0  0  0  0
    0.1850   12.7010   -5.9210 C   0  0  0  0  0  0  0  0  0  0  0  0
   -0.9180   14.5440   -1.9820 C   0  0  0  0  0  0  0  0  0  0  0  0
    1.0450   12.1100   -3.1880 C   0  0  0  0  0  0  0  0  0  0  0  0
   -1.9900   11.1380   -5.1690 C   0  0  0  0  0  0  0  0  0  0  0  0
   -0.0600   11.4880   -6.5600 C   0  0  0  0  0  0  0  0  0  0  0  0
   -2.0220   14.7350   -2.6270 N   0  0  0  0  0  0  0  0  0  0  0  0
   -0.8830   14.6270   -0.2870 S   0  0  0  0  0  0  0  0  0  0  0  0
    0.9610   10.8210   -2.8340 O   0  0  0  0  0  0  0  0  0  0  0  0
    1.8690   12.4820   -4.3790 C   0  0  0  0  0  0  0  0  0  0  0  0
   -1.1480   10.7040   -6.1830 C   0  0  0  0  0  0  0  0  0  0  0  0
   -2.9770   14.9600   -1.7390 C   0  0  0  0  0  0  0  0  0  0  0  0
   -2.5580   14.9410   -0.4040 C   0  0  0  0  0  0  0  0  0  0  0  0
   -4.2990   15.1940   -2.0730 C   0  0  0  0  0  0  0  0  0  0  0  0
   -3.4480   15.1580    0.6250 C   0  0  0  0  0  0  0  0  0  0  0  0
   -5.1850   15.4030   -1.0470 C   0  0  0  0  0  0  0  0  0  0  0  0
   -4.7700   15.3880    0.2810 C   0  0  0  0  0  0  0  0  0  0  0  0
   -6.8330   15.6790   -1.4220 Cl  0  0  0  0  0  0  0  0  0  0  0  0
  2  1  1  6
  2  3  1  0
  2  4  1  0
  2  5  1  0
  4  6  1  1
  4  7  1  0
  5  8  2  0
  5  9  1  0
  4 10  1  0
  7 11  2  3
  8 12  1  0
  9 13  2  0
 10 14  2  0
 10 15  1  0
 11 16  1  0
 11 17  1  0
 12 18  2  0
 13 18  1  0
 14 19  1  0
 15 20  1  0
 19 20  2  0
 19 21  1  0
 20 22  1  0
 21 23  2  0
 22 24  2  0
 23 24  1  0
 23 25  1  0
M  END
