mac-x0116-diamond-x0626_0_A
     RDKit          3D

 20 22  0  0  0  0  0  0  0  0999 V2000
   -6.2420   14.4410    1.2130 C   0  0  2  0  0  0  0  0  0  0  0  0
   -4.8870   14.9620    1.4470 N   0  0  0  0  0  0  0  0  0  0  0  0
   -3.8730   14.8940    0.4610 C   0  0  0  0  0  0  0  0  0  0  0  0
   -6.5140   14.8390   -0.1360 O   0  0  0  0  0  0  0  0  0  0  0  0
   -7.4130   14.8680    2.1080 C   0  0  0  0  0  0  0  0  0  0  0  0
   -6.5120   12.9960    1.2780 C   0  0  0  0  0  0  0  0  0  0  0  0
   -8.6940   15.1990    1.3340 C   0  0  0  0  0  0  0  0  0  0  0  0
   -6.4550   12.2590    0.1380 O   0  0  0  0  0  0  0  0  0  0  0  0
   -6.8670   12.2130    2.3510 C   0  0  0  0  0  0  0  0  0  0  0  0
   -7.0600   10.9330    1.8470 C   0  0  0  0  0  0  0  0  0  0  0  0
   -6.7930   11.0060    0.4980 C   0  0  0  0  0  0  0  0  0  0  0  0
   -4.2280   15.0660   -0.8870 N   0  0  0  0  0  0  0  0  0  0  0  0
   -2.5600   14.6620    0.7900 C   0  0  0  0  0  0  0  0  0  0  0  0
   -3.2990   14.9710   -1.7950 C   0  0  0  0  0  0  0  0  0  0  0  0
   -1.5860   14.5720   -0.2860 C   0  0  0  0  0  0  0  0  0  0  0  0
   -1.8510   14.4680    1.9430 N   0  0  0  0  0  0  0  0  0  0  0  0
   -1.9690   14.7010   -1.5390 N   0  0  0  0  0  0  0  0  0  0  0  0
   -0.4050   14.3620    0.1780 N   0  0  0  0  0  0  0  0  0  0  0  0
   -0.6230   14.3040    1.5280 C   0  0  0  0  0  0  0  0  0  0  0  0
   -0.8680   14.8060   -2.4400 C   0  0  0  0  0  0  0  0  0  0  0  0
  1  2  1  0
  2  3  1  0
  1  4  1  6
  1  5  1  0
  1  6  1  0
  5  7  1  0
  6  8  1  0
  6  9  2  0
  9 10  1  0
  8 11  1  0
 10 11  2  0
  3 12  1  0
  3 13  2  0
 12 14  2  0
 13 15  1  0
 13 16  1  0
 14 17  1  0
 15 17  1  0
 15 18  2  0
 16 19  2  0
 18 19  1  0
 17 20  1  0
M  END
