mac-x0398-mac-x0348
     RDKit          3D

 27 29  0  0  0  0  0  0  0  0999 V2000
   -6.3500   14.7710    2.2530 N   0  0  0  0  0  0  0  0  0  0  0  0
   -5.5720   14.8580    1.0860 C   0  0  0  0  0  0  0  0  0  0  0  0
   -4.1740   14.8240    1.1340 C   0  0  0  0  0  0  0  0  0  0  0  0
   -6.2010   14.9860   -0.1530 C   0  0  0  0  0  0  0  0  0  0  0  0
   -5.4580   15.0770   -1.3270 C   0  0  0  0  0  0  0  0  0  0  0  0
   -3.4210   14.9130   -0.0480 C   0  0  0  0  0  0  0  0  0  0  0  0
   -6.1910   15.1990   -2.4750 O   0  0  0  0  0  0  0  0  0  0  0  0
   -4.0630   15.0390   -1.2910 C   0  0  0  0  0  0  0  0  0  0  0  0
   -3.2360   15.1260   -2.5200 C   0  0  0  0  0  0  0  0  0  0  0  0
   -3.4650   15.9610   -3.3700 O   0  0  0  0  0  0  0  0  0  0  0  0
   -2.2580   14.1680   -2.5950 O   0  0  0  0  0  0  0  0  0  0  0  0
   -0.9430   14.4550   -2.0610 C   0  0  0  0  0  0  0  0  0  0  0  0
    0.1500   14.5530   -3.1720 C   0  0  1  0  0  0  0  0  0  0  0  0
    0.4240   13.2220   -3.8800 C   0  0  0  0  0  0  0  0  0  0  0  0
   -0.1570   15.6650   -4.1380 C   0  0  0  0  0  0  0  0  0  0  0  0
    0.7450   12.1960   -2.8430 C   0  0  0  0  0  0  0  0  0  0  0  0
    0.6780   16.7030   -4.4900 C   0  0  0  0  0  0  0  0  0  0  0  0
   -1.3710   15.8520   -4.8670 C   0  0  0  0  0  0  0  0  0  0  0  0
    1.4400   12.3690   -1.8670 O   0  0  0  0  0  0  0  0  0  0  0  0
    0.1670   11.0030   -3.0710 O   0  0  0  0  0  0  0  0  0  0  0  0
    0.0300   17.4970   -5.3800 N   0  0  0  0  0  0  0  0  0  0  0  0
   -1.2320   17.0130   -5.6190 C   0  0  0  0  0  0  0  0  0  0  0  0
   -2.5830   15.1310   -4.9540 C   0  0  0  0  0  0  0  0  0  0  0  0
    0.6000   18.6690   -5.9800 C   0  0  0  0  0  0  0  0  0  0  0  0
   -3.6030   15.5940   -5.7770 C   0  0  0  0  0  0  0  0  0  0  0  0
   -2.2510   17.4950   -6.4340 C   0  0  0  0  0  0  0  0  0  0  0  0
   -3.4410   16.7620   -6.5070 C   0  0  0  0  0  0  0  0  0  0  0  0
  1  2  1  0
  2  3  2  0
  2  4  1  0
  4  5  2  0
  3  6  1  0
  5  7  1  0
  5  8  1  0
  6  8  2  0
  8  9  1  0
  9 10  2  0
  9 11  1  0
 11 12  1  0
 13 12  1  1
 13 14  1  0
 13 15  1  0
 14 16  1  0
 15 17  2  0
 15 18  1  0
 16 19  2  0
 16 20  1  0
 17 21  1  0
 18 22  2  0
 21 22  1  0
 18 23  1  0
 21 24  1  0
 23 25  2  0
 22 26  1  0
 25 27  1  0
 26 27  2  0
M  END
