mac-x0564-diamond-x0724_0_A
     RDKit          3D

 21 24  0  0  0  0  0  0  0  0999 V2000
    0.8420   13.5800   -1.4730 O   0  0  0  0  0  0  0  0  0  0  0  0
   -0.0280   13.9090   -2.2690 C   0  0  0  0  0  0  0  0  0  0  0  0
    0.2160   14.1200   -3.6180 N   0  0  0  0  0  0  0  0  0  0  0  0
   -1.4060   14.1310   -1.9200 C   0  0  0  0  0  0  0  0  0  0  0  0
   -2.2960   14.8470   -2.6820 C   0  0  0  0  0  0  0  0  0  0  0  0
   -0.6640   14.7950   -4.2930 C   0  0  0  0  0  0  0  0  0  0  0  0
   -1.9940   13.6610   -0.7910 O   0  0  0  0  0  0  0  0  0  0  0  0
   -1.8570   15.3560   -3.8550 N   0  0  0  0  0  0  0  0  0  0  0  0
   -3.2730   14.1000   -0.8460 C   0  0  0  0  0  0  0  0  0  0  0  0
   -3.5100   14.8550   -1.9560 C   0  0  0  0  0  0  0  0  0  0  0  0
   -4.7940   15.4150   -2.0980 C   0  0  0  0  0  0  0  0  0  0  0  0
   -4.2060   13.7270    0.2340 C   0  0  0  0  0  0  0  0  0  0  0  0
   -5.7670   15.2840   -1.1480 C   0  0  0  0  0  0  0  0  0  0  0  0
   -5.6000   14.4300    0.1420 C   0  0  1  0  0  0  0  0  0  0  0  0
   -6.8130   13.5730    0.0360 N   0  0  0  0  0  0  0  0  0  0  0  0
   -5.7660   14.8970    1.6290 C   0  0  0  0  0  0  0  0  0  0  0  0
   -7.1620   14.4220    2.1090 C   0  0  2  0  0  0  0  0  0  0  0  0
   -7.8650   14.2920    0.7810 C   0  0  0  0  0  0  0  0  0  0  0  0
   -7.8850   15.1350    3.2750 C   0  0  0  0  0  0  0  0  0  0  0  0
   -8.7570   14.2450    4.0650 N   0  0  0  0  0  0  0  0  0  0  0  0
   -8.4160   14.2620    5.4860 C   0  0  0  0  0  0  0  0  0  0  0  0
  1  2  2  0
  2  3  1  0
  2  4  1  0
  4  5  2  0
  3  6  2  0
  4  7  1  0
  5  8  1  0
  6  8  1  0
  7  9  1  0
  5 10  1  0
  9 10  2  0
 10 11  1  0
  9 12  1  0
 11 13  2  0
 14 12  1  1
 14 13  1  0
 14 15  1  0
 14 16  1  0
 16 17  1  0
 15 18  1  0
 17 18  1  0
 17 19  1  1
 19 20  1  0
 20 21  1  0
M  END
