mac-x0306-mac-x0345
     RDKit          3D

 14 15  0  0  0  0  0  0  0  0999 V2000
   -7.4050   14.7060   -1.9290 C   0  0  0  0  0  0  0  0  0  0  0  0
   -5.9400   14.8310   -1.6080 C   0  0  0  0  0  0  0  0  0  0  0  0
   -5.5870   14.8540   -0.2760 C   0  0  0  0  0  0  0  0  0  0  0  0
   -4.9540   14.9190   -2.5760 C   0  0  0  0  0  0  0  0  0  0  0  0
   -5.3000   14.8800   -3.9150 N   0  0  0  0  0  0  0  0  0  0  0  0
   -6.7030   14.7350    0.6600 C   0  0  0  0  0  0  0  0  0  0  0  0
   -3.6380   15.0390   -2.2860 N   0  0  0  0  0  0  0  0  0  0  0  0
   -4.2440   14.9780    0.0530 C   0  0  0  0  0  0  0  0  0  0  0  0
   -3.6390   15.0270    1.8230 Br  0  0  0  0  0  0  0  0  0  0  0  0
   -6.6500   14.5260    2.0190 N   0  0  0  0  0  0  0  0  0  0  0  0
   -7.9700   14.8150    0.2900 N   0  0  0  0  0  0  0  0  0  0  0  0
   -3.3160   15.0670   -0.9720 C   0  0  0  0  0  0  0  0  0  0  0  0
   -8.7280   14.6620    1.4040 C   0  0  0  0  0  0  0  0  0  0  0  0
   -7.9240   14.4810    2.4960 C   0  0  0  0  0  0  0  0  0  0  0  0
  1  2  1  0
  2  3  2  0
  2  4  1  0
  4  5  1  0
  3  6  1  0
  4  7  2  0
  3  8  1  0
  8  9  1  0
  6 10  1  0
  6 11  2  0
  7 12  1  0
  8 12  2  0
 11 13  1  0
 10 14  1  0
 13 14  2  0
M  END
