mac-x0379-diamond-x0628_0_A
     RDKit          3D

 22 23  0  0  0  0  0  0  0  0999 V2000
   -5.0890   15.1020    0.4690 C   0  0  0  0  0  0  0  0  0  0  0  0
   -4.3270   15.1070   -0.8020 C   0  0  0  0  0  0  0  0  0  0  0  0
   -4.8560   15.3390   -1.9800 N   0  0  0  0  0  0  0  0  0  0  0  0
   -2.6400   14.7950   -0.7950 S   0  0  0  0  0  0  0  0  0  0  0  0
   -3.8790   15.2720   -2.9450 C   0  0  0  0  0  0  0  0  0  0  0  0
   -2.6120   14.9910   -2.5000 C   0  0  0  0  0  0  0  0  0  0  0  0
   -1.4280   14.8560   -3.2770 C   0  0  0  0  0  0  0  0  0  0  0  0
   -1.2960   14.7500   -4.5490 N   0  0  0  0  0  0  0  0  0  0  0  0
   -0.3020   14.8110   -2.5330 O   0  0  0  0  0  0  0  0  0  0  0  0
    0.0130   14.5040   -5.1210 C   0  0  0  0  0  0  0  0  0  0  0  0
    0.3050   13.0810   -4.6800 C   0  0  2  0  0  0  0  0  0  0  0  0
    1.6990   12.8390   -4.1900 C   0  0  0  0  0  0  0  0  0  0  0  0
   -0.3600   11.9760   -5.3700 N   0  0  0  0  0  0  0  0  0  0  0  0
    1.4830   12.2640   -2.8350 C   0  0  0  0  0  0  0  0  0  0  0  0
    0.2130   11.2440   -6.3460 N   0  0  0  0  0  0  0  0  0  0  0  0
   -1.6300   11.5340   -5.1080 C   0  0  0  0  0  0  0  0  0  0  0  0
    0.8200   11.2620   -2.5830 O   0  0  0  0  0  0  0  0  0  0  0  0
    2.0580   12.9760   -1.8620 O   0  0  0  0  0  0  0  0  0  0  0  0
   -2.5230   12.1290   -4.0890 C   0  0  0  0  0  0  0  0  0  0  0  0
   -1.9040   10.5150   -5.8930 N   0  0  0  0  0  0  0  0  0  0  0  0
   -0.7600   10.3640   -6.6280 C   0  0  0  0  0  0  0  0  0  0  0  0
   -0.6170    9.3070   -7.6470 C   0  0  0  0  0  0  0  0  0  0  0  0
  1  2  1  0
  2  3  2  0
  2  4  1  0
  3  5  1  0
  4  6  1  0
  5  6  2  0
  6  7  1  0
  7  8  2  3
  7  9  1  0
  8 10  1  0
 11 10  1  6
 11 12  1  0
 11 13  1  0
 12 14  1  0
 13 15  1  0
 13 16  1  0
 14 17  2  0
 14 18  1  0
 16 19  1  0
 16 20  2  0
 15 21  2  0
 20 21  1  0
 21 22  1  0
M  END
