mac-x0555-diamond-x0128_0_A
     RDKit          3D

 20 22  0  0  0  0  0  0  0  0999 V2000
   -7.6210   14.9840    3.0620 N   0  0  2  0  0  0  0  0  0  0  0  0
   -6.6000   15.4350    3.8990 N   0  0  0  0  0  0  0  0  0  0  0  0
   -8.3580   16.0640    2.8580 O   0  0  0  0  0  0  0  0  0  0  0  0
   -8.6120   14.4890    3.9390 N   0  0  0  0  0  0  0  0  0  0  0  0
   -7.1310   14.7790    1.6560 C   0  0  0  0  0  0  0  0  0  0  0  0
   -5.7610   14.9890    1.4140 C   0  0  0  0  0  0  0  0  0  0  0  0
   -7.9030   14.4640    0.5440 C   0  0  0  0  0  0  0  0  0  0  0  0
   -9.0240   15.4630    4.9330 C   0  0  0  0  0  0  0  0  0  0  0  0
   -5.2140   14.9250    0.1340 C   0  0  0  0  0  0  0  0  0  0  0  0
   -7.4000   14.3800   -0.7290 N   0  0  0  0  0  0  0  0  0  0  0  0
   -9.5710   16.7340    4.6350 C   0  0  0  0  0  0  0  0  0  0  0  0
   -8.8930   15.2030    6.3080 C   0  0  0  0  0  0  0  0  0  0  0  0
   -6.0800   14.6240   -0.9240 C   0  0  0  0  0  0  0  0  0  0  0  0
   -3.8480   15.1690   -0.0870 C   0  0  0  0  0  0  0  0  0  0  0  0
   -9.9650   17.6720    5.5430 N   0  0  0  0  0  0  0  0  0  0  0  0
   -9.2910   16.1510    7.2670 C   0  0  0  0  0  0  0  0  0  0  0  0
   -5.5390   14.5870   -2.2060 C   0  0  0  0  0  0  0  0  0  0  0  0
   -3.3370   15.1200   -1.3790 C   0  0  0  0  0  0  0  0  0  0  0  0
   -9.8170   17.3580    6.8390 C   0  0  0  0  0  0  0  0  0  0  0  0
   -4.1810   14.8340   -2.4390 C   0  0  0  0  0  0  0  0  0  0  0  0
  1  2  1  1
  1  3  1  0
  1  4  1  0
  1  5  1  0
  5  6  2  0
  5  7  1  0
  4  8  1  0
  6  9  1  0
  7 10  2  0
  8 11  2  0
  8 12  1  0
  9 13  2  0
 10 13  1  0
  9 14  1  0
 11 15  1  0
 12 16  2  0
 13 17  1  0
 14 18  2  0
 15 19  2  0
 16 19  1  0
 17 20  2  0
 18 20  1  0
M  CHG  2   1   1   3  -1
M  END
