mac-x0179-diamond-x0628_0_A
     RDKit          3D

 17 18  0  0  0  0  0  0  0  0999 V2000
    1.2310   12.8840   -2.1640 O   0  0  0  0  0  0  0  0  0  0  0  0
    0.7730   12.0430   -3.1130 C   0  0  0  0  0  0  0  0  0  0  0  0
    0.4840   10.8930   -2.8260 O   0  0  0  0  0  0  0  0  0  0  0  0
    0.6770   12.6480   -4.5100 C   0  0  1  0  0  0  0  0  0  0  0  0
    2.0620   13.1160   -4.9160 C   0  0  0  0  0  0  0  0  0  0  0  0
    0.0130   11.7400   -5.4520 N   0  0  0  0  0  0  0  0  0  0  0  0
    0.6390   11.1850   -6.5540 C   0  0  0  0  0  0  0  0  0  0  0  0
   -1.2660   11.2540   -5.3000 C   0  0  0  0  0  0  0  0  0  0  0  0
    1.7140   11.5070   -7.0010 O   0  0  0  0  0  0  0  0  0  0  0  0
   -1.9880   11.3660   -4.3230 O   0  0  0  0  0  0  0  0  0  0  0  0
   -0.2630   10.0780   -7.1120 C   0  0  2  0  0  0  0  0  0  0  0  0
   -1.6220   10.5420   -6.5910 C   0  0  1  0  0  0  0  0  0  0  0  0
    0.0330    8.6800   -6.5300 C   0  0  0  0  0  0  0  0  0  0  0  0
   -0.4040    9.8060   -8.5720 C   0  0  0  0  0  0  0  0  0  0  0  0
   -2.5430    9.3690   -6.7240 C   0  0  0  0  0  0  0  0  0  0  0  0
   -1.4920    9.0960   -8.9210 C   0  0  0  0  0  0  0  0  0  0  0  0
   -2.4450    8.6730   -7.8870 C   0  0  0  0  0  0  0  0  0  0  0  0
  1  2  1  0
  2  3  2  0
  2  4  1  0
  4  5  1  6
  4  6  1  0
  6  7  1  0
  6  8  1  0
  7  9  2  0
  8 10  2  0
  7 11  1  0
  8 12  1  0
 11 12  1  0
 11 13  1  1
 11 14  1  0
 12 15  1  1
 14 16  2  0
 15 17  2  0
 16 17  1  0
M  END
