mac-x0305-diamond-x0591_0_A
     RDKit          3D

 25 26  0  0  0  0  0  0  0  0999 V2000
    0.3000   13.1490   -0.4410 O   0  0  0  0  0  0  0  0  0  0  0  0
   -0.3600   14.0330   -1.2560 C   0  0  0  0  0  0  0  0  0  0  0  0
    0.1630   14.2650   -2.4100 N   0  0  0  0  0  0  0  0  0  0  0  0
   -1.6210   14.6040   -0.6840 C   0  0  0  0  0  0  0  0  0  0  0  0
   -0.5270   15.2150   -3.2870 C   0  0  0  0  0  0  0  0  0  0  0  0
   -1.9380   14.7270    0.6820 C   0  0  0  0  0  0  0  0  0  0  0  0
   -2.4860   15.0270   -1.6490 N   0  0  0  0  0  0  0  0  0  0  0  0
   -1.1600   14.3530    1.7400 O   0  0  0  0  0  0  0  0  0  0  0  0
   -0.7700   14.6630   -4.6010 N   0  0  0  0  0  0  0  0  0  0  0  0
   -3.1640   15.2870    1.0310 C   0  0  0  0  0  0  0  0  0  0  0  0
   -3.6600   15.5710   -1.2630 C   0  0  0  0  0  0  0  0  0  0  0  0
   -2.3080   14.1400   -5.0790 S   0  0  0  0  0  0  0  0  0  0  0  0
   -4.0390   15.7190    0.0500 C   0  0  0  0  0  0  0  0  0  0  0  0
   -2.1770   12.7560   -5.4460 O   0  0  0  0  0  0  0  0  0  0  0  0
   -2.8220   15.1120   -6.0250 O   0  0  0  0  0  0  0  0  0  0  0  0
   -3.4540   14.1910   -3.6960 C   0  0  0  0  0  0  0  0  0  0  0  0
   -3.1940   13.5760   -2.4660 C   0  0  0  0  0  0  0  0  0  0  0  0
   -4.6480   14.8700   -3.8830 C   0  0  0  0  0  0  0  0  0  0  0  0
   -4.1510   13.6640   -1.4240 C   0  0  0  0  0  0  0  0  0  0  0  0
   -5.6000   14.9640   -2.8540 C   0  0  0  0  0  0  0  0  0  0  0  0
   -5.3580   14.3670   -1.6170 C   0  0  0  0  0  0  0  0  0  0  0  0
   -6.3640   14.4690   -0.5080 C   0  0  0  0  0  0  0  0  0  0  0  0
   -5.9100   14.2830    0.7780 N   0  0  0  0  0  0  0  0  0  0  0  0
   -7.5340   14.7150   -0.7740 O   0  0  0  0  0  0  0  0  0  0  0  0
   -6.7900   14.4650    1.9100 C   0  0  0  0  0  0  0  0  0  0  0  0
  1  2  1  0
  2  3  2  3
  2  4  1  0
  3  5  1  0
  4  6  2  0
  4  7  1  0
  6  8  1  0
  5  9  1  0
  6 10  1  0
  7 11  2  0
 12  9  1  0
 10 13  2  0
 11 13  1  0
 12 14  2  0
 12 15  2  0
 12 16  1  0
 16 17  2  0
 16 18  1  0
 17 19  1  0
 18 20  2  0
 19 21  2  0
 20 21  1  0
 21 22  1  0
 22 23  1  0
 22 24  2  0
 23 25  1  0
M  END
