mac-x0568-mac-x0555
     RDKit          3D

 14 15  0  0  0  0  0  0  0  0999 V2000
   -8.4810   14.1080    1.1370 C   0  0  0  0  0  0  0  0  0  0  0  0
   -7.1320   14.5910    0.6650 C   0  0  0  0  0  0  0  0  0  0  0  0
   -6.0510   14.6300    1.6990 C   0  0  0  0  0  0  0  0  0  0  0  0
   -7.0170   14.9440   -0.5800 N   0  0  0  0  0  0  0  0  0  0  0  0
   -5.6840   15.4430   -0.9920 C   0  0  1  0  0  0  0  0  0  0  0  0
   -4.7850   14.8300    1.3120 C   0  0  0  0  0  0  0  0  0  0  0  0
   -4.4540   15.0210   -0.1490 C   0  0  1  0  0  0  0  0  0  0  0  0
   -5.2980   15.1090   -2.3960 C   0  0  0  0  0  0  0  0  0  0  0  0
   -3.6940   13.8400   -0.7590 C   0  0  0  0  0  0  0  0  0  0  0  0
   -4.0230   15.3830   -2.7620 C   0  0  0  0  0  0  0  0  0  0  0  0
   -3.3050   15.8840   -0.4880 C   0  0  0  0  0  0  0  0  0  0  0  0
   -4.0600   13.1590   -1.6970 O   0  0  0  0  0  0  0  0  0  0  0  0
   -2.4450   13.6290   -0.2210 N   0  0  0  0  0  0  0  0  0  0  0  0
   -3.1040   16.0050   -1.8090 C   0  0  0  0  0  0  0  0  0  0  0  0
  1  2  1  0
  2  3  1  0
  2  4  2  0
  4  5  1  0
  3  6  2  0
  5  7  1  0
  6  7  1  0
  5  8  1  6
  7  9  1  6
  8 10  2  0
  7 11  1  0
  9 12  2  0
  9 13  1  0
 10 14  1  0
 11 14  2  0
M  END
