mac-x0472-mac-x0567
     RDKit          3D

 20 22  0  0  0  0  0  0  0  0999 V2000
   -3.5590   15.0730   -3.7070 O   0  0  0  0  0  0  0  0  0  0  0  0
   -2.6660   13.9390   -3.5130 S   0  0  0  0  0  0  0  0  0  0  0  0
   -1.8880   13.4550   -4.6090 O   0  0  0  0  0  0  0  0  0  0  0  0
   -1.6670   14.3620   -2.2250 N   0  0  0  0  0  0  0  0  0  0  0  0
   -3.7040   12.6030   -2.8780 C   0  0  0  0  0  0  0  0  0  0  0  0
   -2.7140   14.7580   -1.4640 C   0  0  0  0  0  0  0  0  0  0  0  0
   -3.2610   11.2960   -3.0320 C   0  0  0  0  0  0  0  0  0  0  0  0
   -4.9460   12.8520   -2.2420 C   0  0  0  0  0  0  0  0  0  0  0  0
   -4.0360   10.2380   -2.5730 C   0  0  0  0  0  0  0  0  0  0  0  0
   -5.7170   11.7830   -1.7830 C   0  0  0  0  0  0  0  0  0  0  0  0
   -3.7920   15.1110   -2.2850 C   0  0  0  0  0  0  0  0  0  0  0  0
   -2.8650   14.8400   -0.1180 C   0  0  0  0  0  0  0  0  0  0  0  0
   -2.1080   14.6090    0.9580 N   0  0  0  0  0  0  0  0  0  0  0  0
   -4.2870   15.3280    0.5370 S   0  0  0  0  0  0  0  0  0  0  0  0
   -5.2640   10.4820   -1.9520 C   0  0  0  0  0  0  0  0  0  0  0  0
   -5.0800   15.5450   -1.9310 C   0  0  0  0  0  0  0  0  0  0  0  0
   -0.6950   14.1470    0.9590 N   0  0  0  0  0  0  0  0  0  0  0  0
   -3.9950   15.2630    2.1460 C   0  0  0  0  0  0  0  0  0  0  0  0
   -2.7200   14.8320    2.2240 N   0  0  0  0  0  0  0  0  0  0  0  0
   -5.5190   15.7110   -0.6430 C   0  0  0  0  0  0  0  0  0  0  0  0
  1  2  2  0
  2  3  2  0
  2  4  1  0
  2  5  1  0
  4  6  1  0
  5  7  2  0
  5  8  1  0
  7  9  1  0
  8 10  2  0
  6 11  2  0
  6 12  1  0
 12 13  1  0
 12 14  2  0
  9 15  2  0
 10 15  1  0
 11 16  1  0
 13 17  1  0
 14 18  1  0
 13 19  1  0
 18 19  2  0
 14 20  1  0
 16 20  2  0
M  END
