mac-x0228-diamond-x0290_0_A
     RDKit          3D

 24 26  0  0  0  0  0  0  0  0999 V2000
   -1.5250   13.2300   -3.0180 O   0  0  0  0  0  0  0  0  0  0  0  0
   -1.9090   14.4780   -2.4820 C   0  0  0  0  0  0  0  0  0  0  0  0
   -1.2560   15.4380   -3.2860 O   0  0  0  0  0  0  0  0  0  0  0  0
   -3.4300   14.6060   -2.4590 C   0  0  0  0  0  0  0  0  0  0  0  0
   -1.5590   14.5450   -1.0080 C   0  0  0  0  0  0  0  0  0  0  0  0
   -4.0150   14.6180   -1.1780 C   0  0  0  0  0  0  0  0  0  0  0  0
   -4.2790   14.7020   -3.5770 C   0  0  0  0  0  0  0  0  0  0  0  0
   -0.3300   14.7850   -0.3990 C   0  0  0  0  0  0  0  0  0  0  0  0
   -2.6620   14.3300   -0.1810 C   0  0  0  0  0  0  0  0  0  0  0  0
   -5.3730   14.7150   -1.0370 C   0  0  0  0  0  0  0  0  0  0  0  0
   -5.6720   14.8040   -3.4060 C   0  0  0  0  0  0  0  0  0  0  0  0
   -0.3060   14.7890    0.9930 C   0  0  0  0  0  0  0  0  0  0  0  0
   -2.5630   14.3510    1.1810 C   0  0  0  0  0  0  0  0  0  0  0  0
   -3.7620   14.1220    1.8530 N   0  0  0  0  0  0  0  0  0  0  0  0
   -6.1850   14.8090   -2.1300 C   0  0  0  0  0  0  0  0  0  0  0  0
   -6.1710   14.7290    0.1920 C   0  0  0  0  0  0  0  0  0  0  0  0
   -1.3900   14.5750    1.7820 N   0  0  0  0  0  0  0  0  0  0  0  0
   -4.8750   13.4130    1.4570 C   0  0  0  0  0  0  0  0  0  0  0  0
   -7.5180   14.9040   -1.8330 O   0  0  0  0  0  0  0  0  0  0  0  0
   -7.5760   14.8920   -0.3970 C   0  0  0  0  0  0  0  0  0  0  0  0
   -4.7710   12.7940    0.3880 O   0  0  0  0  0  0  0  0  0  0  0  0
   -6.1600   13.4210    2.3270 C   0  0  0  0  0  0  0  0  0  0  0  0
   -7.4510   13.2320    1.6050 N   0  0  0  0  0  0  0  0  0  0  0  0
   -8.4120   14.2860    1.9260 C   0  0  0  0  0  0  0  0  0  0  0  0
  2  1  1  0
  2  3  1  0
  2  4  1  0
  2  5  1  0
  4  6  2  0
  4  7  1  0
  5  8  2  0
  5  9  1  0
  6 10  1  0
  7 11  2  0
  8 12  1  0
  9 13  2  0
 13 14  1  0
 10 15  2  0
 11 15  1  0
 10 16  1  0
 12 17  2  0
 13 17  1  0
 14 18  1  0
 15 19  1  0
 16 20  1  0
 19 20  1  0
 18 21  2  0
 18 22  1  0
 22 23  1  0
 23 24  1  0
M  END
