mac-x0284-diamond-x0962_1_A
     RDKit          3D

 17 18  0  0  0  0  0  0  0  0999 V2000
   -3.9380   15.2200    0.2390 C   0  0  1  0  0  0  0  0  0  0  0  0
   -3.3020   14.1930    1.0380 N   0  0  0  0  0  0  0  0  0  0  0  0
   -3.3880   15.1050   -1.1190 C   0  0  0  0  0  0  0  0  0  0  0  0
   -5.4610   15.1540    0.2990 C   0  0  2  0  0  0  0  0  0  0  0  0
   -2.0400   14.7990   -1.2550 C   0  0  0  0  0  0  0  0  0  0  0  0
   -4.1870   15.2890   -2.2450 C   0  0  0  0  0  0  0  0  0  0  0  0
   -5.8300   15.0020    1.7230 N   0  0  0  0  0  0  0  0  0  0  0  0
   -6.2230   14.0170   -0.3450 C   0  0  0  0  0  0  0  0  0  0  0  0
   -1.4590   14.6720   -2.5020 C   0  0  0  0  0  0  0  0  0  0  0  0
   -3.6210   15.1600   -3.5070 C   0  0  0  0  0  0  0  0  0  0  0  0
   -7.1220   14.3460    1.7490 C   0  0  0  0  0  0  0  0  0  0  0  0
   -7.5090   14.1570    0.3610 N   0  0  0  0  0  0  0  0  0  0  0  0
   -0.0010   14.3520   -2.5120 C   0  0  0  0  0  0  0  0  0  0  0  0
   -2.2650   14.8520   -3.6320 C   0  0  0  0  0  0  0  0  0  0  0  0
   -1.7290   14.7290   -4.8850 O   0  0  0  0  0  0  0  0  0  0  0  0
    0.7030   14.4480   -1.5200 O   0  0  0  0  0  0  0  0  0  0  0  0
    0.4880   13.9520   -3.6960 O   0  0  0  0  0  0  0  0  0  0  0  0
  1  2  1  1
  1  3  1  0
  1  4  1  0
  3  5  2  0
  3  6  1  0
  4  7  1  0
  4  8  1  6
  5  9  1  0
  6 10  2  0
  7 11  1  0
  8 12  1  0
 11 12  1  0
  9 13  1  0
  9 14  2  0
 10 14  1  0
 14 15  1  0
 13 16  2  0
 13 17  1  0
M  END
