mac-x0385-diamond-x0805_0_A
     RDKit          3D

 24 26  0  0  0  0  0  0  0  0999 V2000
   -5.0020   14.8380   -1.0160 C   0  0  0  0  0  0  0  0  0  0  0  0
   -3.8180   14.8800   -0.1040 C   0  0  0  0  0  0  0  0  0  0  0  0
   -2.7020   14.5270   -0.8290 C   0  0  0  0  0  0  0  0  0  0  0  0
   -4.0670   14.3210   -2.0610 C   0  0  0  0  0  0  0  0  0  0  0  0
   -3.5710   15.1630    1.2300 C   0  0  0  0  0  0  0  0  0  0  0  0
   -2.9020   15.0270   -1.9280 C   0  0  0  0  0  0  0  0  0  0  0  0
   -4.1470   13.3170   -3.0380 C   0  0  0  0  0  0  0  0  0  0  0  0
   -4.5720   15.5420    2.1250 N   0  0  0  0  0  0  0  0  0  0  0  0
   -2.3100   15.0720    1.7240 N   0  0  0  0  0  0  0  0  0  0  0  0
   -1.4730   14.4350   -0.3830 N   0  0  0  0  0  0  0  0  0  0  0  0
   -2.9950   13.0690   -3.8360 C   0  0  0  0  0  0  0  0  0  0  0  0
   -1.7900   14.7940   -2.6910 C   0  0  0  0  0  0  0  0  0  0  0  0
   -1.3310   14.7090    0.8830 C   0  0  0  0  0  0  0  0  0  0  0  0
   -1.7980   13.8180   -3.6500 C   0  0  0  0  0  0  0  0  0  0  0  0
    0.0440   14.5740    1.3470 C   0  0  0  0  0  0  0  0  0  0  0  0
   -0.4770   13.6640   -4.4000 C   0  0  2  0  0  0  0  0  0  0  0  0
    0.6420   13.1390   -3.4970 C   0  0  1  0  0  0  0  0  0  0  0  0
    0.0930   14.9830   -4.9310 C   0  0  0  0  0  0  0  0  0  0  0  0
    0.3520   11.9540   -2.6220 C   0  0  0  0  0  0  0  0  0  0  0  0
    1.9490   13.0310   -4.2480 C   0  0  0  0  0  0  0  0  0  0  0  0
    1.4420   15.3610   -4.3090 C   0  0  0  0  0  0  0  0  0  0  0  0
   -0.0050   10.8120   -3.2460 O   0  0  0  0  0  0  0  0  0  0  0  0
    0.4470   12.0460   -1.4110 O   0  0  0  0  0  0  0  0  0  0  0  0
    2.4410   14.3360   -4.4810 O   0  0  0  0  0  0  0  0  0  0  0  0
  1  2  1  0
  2  3  2  0
  1  4  1  0
  2  5  1  0
  4  6  2  0
  4  7  1  0
  5  8  1  0
  5  9  2  0
  3 10  1  0
  7 11  2  0
  6 12  1  0
  9 13  1  0
 10 13  2  0
 11 14  1  0
 12 14  2  0
 13 15  1  0
 16 14  1  1
 16 17  1  0
 16 18  1  0
 17 19  1  6
 17 20  1  0
 18 21  1  0
 19 22  1  0
 19 23  2  0
 20 24  1  0
 21 24  1  0
M  END
