mac-x0357-mac-x0587
     RDKit          3D

 23 25  0  0  0  0  0  0  0  0999 V2000
    2.3610   13.2130   -4.4300 C   0  0  0  0  0  0  0  0  0  0  0  0
    1.2390   12.3050   -4.7880 C   0  0  0  0  0  0  0  0  0  0  0  0
    1.1680   11.7740   -6.0650 C   0  0  0  0  0  0  0  0  0  0  0  0
    0.2350   11.9300   -3.9790 C   0  0  0  0  0  0  0  0  0  0  0  0
    2.1200   12.0920   -6.9080 O   0  0  0  0  0  0  0  0  0  0  0  0
    0.0230   12.4960   -2.3780 S   0  0  0  0  0  0  0  0  0  0  0  0
   -0.7610   11.0690   -4.4150 C   0  0  0  0  0  0  0  0  0  0  0  0
    0.1800   10.9240   -6.5290 C   0  0  0  0  0  0  0  0  0  0  0  0
   -1.0950   13.6360   -1.8140 N   0  0  0  0  0  0  0  0  0  0  0  0
   -0.4610   11.2610   -1.5960 O   0  0  0  0  0  0  0  0  0  0  0  0
   -1.3000   12.2680   -3.2000 C   0  0  0  0  0  0  0  0  0  0  0  0
    0.7000   13.5460   -3.0080 O   0  0  0  0  0  0  0  0  0  0  0  0
   -0.8020   10.5650   -5.6740 C   0  0  0  0  0  0  0  0  0  0  0  0
   -1.1540   13.4160   -4.6900 S   0  0  0  0  0  0  0  0  0  0  0  0
   -1.8610   14.3770   -1.1890 C   0  0  0  0  0  0  0  0  0  0  0  0
   -1.1300   15.0450   -4.0380 C   0  0  1  0  0  0  0  0  0  0  0  0
   -2.6260   15.2660   -1.9380 N   0  0  0  0  0  0  0  0  0  0  0  0
   -2.2630   14.5760    0.1780 N   0  0  0  0  0  0  0  0  0  0  0  0
   -0.6610   16.1100   -5.0210 C   0  0  0  0  0  0  0  0  0  0  0  0
   -2.3350   15.3410   -3.2970 C   0  0  0  0  0  0  0  0  0  0  0  0
   -3.9820   15.2000   -1.3800 C   0  0  0  0  0  0  0  0  0  0  0  0
   -3.6170   15.1200    0.1300 C   0  0  0  0  0  0  0  0  0  0  0  0
   -3.3020   15.7040   -4.0540 O   0  0  0  0  0  0  0  0  0  0  0  0
  1  2  1  0
  2  3  2  0
  2  4  1  0
  3  5  1  0
  4  6  1  0
  4  7  2  0
  3  8  1  0
  6  9  1  0
  6 10  1  0
  6 11  1  0
  6 12  2  0
  7 13  1  0
  8 13  2  0
 11 14  1  0
  9 15  2  0
 14 16  1  0
 15 17  1  0
 15 18  1  0
 16 19  1  6
 16 20  1  0
 17 20  1  0
 17 21  1  0
 18 22  1  0
 21 22  1  0
 20 23  2  0
M  END
