mac-x0587-mac-x0411
     RDKit          3D

 23 25  0  0  0  0  0  0  0  0999 V2000
    0.0930   15.4300   -3.7610 C   0  0  0  0  0  0  0  0  0  0  0  0
   -0.9270   14.2890   -3.7800 C   0  0  2  0  0  0  0  0  0  0  0  0
   -0.6770   13.2200   -5.2080 S   0  0  1  0  0  0  0  0  0  0  0  0
   -2.3800   14.6750   -3.4950 C   0  0  0  0  0  0  0  0  0  0  0  0
    0.2620   11.8650   -4.6720 C   0  0  2  0  0  0  0  0  0  0  0  0
   -3.1100   14.9390   -4.4570 O   0  0  0  0  0  0  0  0  0  0  0  0
   -2.8240   14.7490   -2.1930 N   0  0  0  0  0  0  0  0  0  0  0  0
   -1.5560   11.7740   -5.7370 C   0  0  0  0  0  0  0  0  0  0  0  0
    0.9890   11.8440   -3.3380 C   0  0  0  0  0  0  0  0  0  0  0  0
    0.7130   11.3100   -5.9060 O   0  0  0  0  0  0  0  0  0  0  0  0
   -4.1360   15.1150   -1.6940 C   0  0  0  0  0  0  0  0  0  0  0  0
   -1.9290   14.7350   -1.1030 C   0  0  0  0  0  0  0  0  0  0  0  0
   -0.5510   10.8440   -6.1290 C   0  0  0  0  0  0  0  0  0  0  0  0
   -2.8990   11.4630   -5.8270 C   0  0  0  0  0  0  0  0  0  0  0  0
    0.8040   10.9420   -2.5380 O   0  0  0  0  0  0  0  0  0  0  0  0
    1.8360   12.8620   -3.0770 O   0  0  0  0  0  0  0  0  0  0  0  0
   -0.7120   14.7800   -1.0830 O   0  0  0  0  0  0  0  0  0  0  0  0
   -3.9850   15.2070   -0.1810 C   0  0  0  0  0  0  0  0  0  0  0  0
   -2.6860   14.6680    0.0600 N   0  0  0  0  0  0  0  0  0  0  0  0
   -3.2270   10.1900   -6.3410 C   0  0  0  0  0  0  0  0  0  0  0  0
   -0.8840    9.6000   -6.6570 C   0  0  0  0  0  0  0  0  0  0  0  0
    0.2680    8.4360   -7.1970 Cl  0  0  0  0  0  0  0  0  0  0  0  0
   -2.2320    9.2770   -6.7570 C   0  0  0  0  0  0  0  0  0  0  0  0
  2  1  1  6
  2  3  1  0
  2  4  1  0
  3  5  1  0
  4  6  2  0
  4  7  1  0
  3  8  1  1
  5  9  1  1
  5 10  1  0
  7 11  1  0
  7 12  1  0
  8 13  2  0
 10 13  1  0
  8 14  1  0
  9 15  2  0
  9 16  1  0
 12 17  2  0
 11 18  1  0
 12 19  1  0
 18 19  1  0
 14 20  2  0
 13 21  1  0
 21 22  1  0
 20 23  1  0
 21 23  2  0
M  END
