mac-x0283-mac-x0321
     RDKit          3D

 14 15  0  0  0  0  0  0  0  0999 V2000
   -6.7610   14.8150    2.2840 N   0  0  0  0  0  0  0  0  0  0  0  0
   -6.6030   14.7660    0.9420 C   0  0  0  0  0  0  0  0  0  0  0  0
   -7.6220   14.6780    0.0860 N   0  0  0  0  0  0  0  0  0  0  0  0
   -5.3580   14.8070    0.2470 C   0  0  0  0  0  0  0  0  0  0  0  0
   -7.0600   14.6600   -1.1800 O   0  0  0  0  0  0  0  0  0  0  0  0
   -5.7040   14.7290   -1.0880 C   0  0  0  0  0  0  0  0  0  0  0  0
   -4.0000   14.8960    0.5120 C   0  0  0  0  0  0  0  0  0  0  0  0
   -3.5530   15.0130    2.1090 Cl  0  0  0  0  0  0  0  0  0  0  0  0
   -4.7780   14.7220   -2.1540 C   0  0  0  0  0  0  0  0  0  0  0  0
   -3.0380   14.8880   -0.4740 C   0  0  0  0  0  0  0  0  0  0  0  0
   -3.4090   14.7960   -1.8040 C   0  0  0  0  0  0  0  0  0  0  0  0
   -2.2840   14.7770   -2.7800 C   0  0  0  0  0  0  0  0  0  0  0  0
   -1.0840   14.6600   -2.1740 O   0  0  0  0  0  0  0  0  0  0  0  0
   -2.3700   14.8440   -3.9900 O   0  0  0  0  0  0  0  0  0  0  0  0
  1  2  1  0
  2  3  2  0
  2  4  1  0
  3  5  1  0
  4  6  2  0
  5  6  1  0
  4  7  1  0
  7  8  1  0
  6  9  1  0
  7 10  2  0
  9 11  2  0
 10 11  1  0
 11 12  1  0
 12 13  1  0
 12 14  2  0
M  END
