mac-x0402-diamond-x0905_0_A
     RDKit          3D

 12 13  0  0  0  0  0  0  0  0999 V2000
   -2.1140   14.8190   -3.3230 Cl  0  0  0  0  0  0  0  0  0  0  0  0
   -3.2940   14.8490   -2.0630 C   0  0  0  0  0  0  0  0  0  0  0  0
   -4.6410   14.9670   -2.3950 C   0  0  0  0  0  0  0  0  0  0  0  0
   -2.8750   14.7530   -0.7280 C   0  0  0  0  0  0  0  0  0  0  0  0
   -3.8590   14.7780    0.2700 C   0  0  0  0  0  0  0  0  0  0  0  0
   -5.6010   14.9870   -1.3790 C   0  0  0  0  0  0  0  0  0  0  0  0
   -6.9460   15.0940   -1.6570 O   0  0  0  0  0  0  0  0  0  0  0  0
   -5.2140   14.8910   -0.0320 C   0  0  0  0  0  0  0  0  0  0  0  0
   -3.6870   14.6830    1.9830 S   0  0  0  0  0  0  0  0  0  0  0  0
   -5.3870   14.7980    2.1680 C   0  0  0  0  0  0  0  0  0  0  0  0
   -6.0620   14.8960    1.0620 N   0  0  0  0  0  0  0  0  0  0  0  0
   -5.9710   14.7860    3.3780 N   0  0  0  0  0  0  0  0  0  0  0  0
  1  2  1  0
  2  3  2  0
  2  4  1  0
  4  5  2  0
  3  6  1  0
  6  7  1  0
  5  8  1  0
  6  8  2  0
  5  9  1  0
  9 10  1  0
  8 11  1  0
 10 11  2  0
 10 12  1  0
M  END
