mac-x0587-mac-x0375
     RDKit          3D

 22 23  0  0  0  0  0  0  0  0999 V2000
   -0.0080   15.6440   -4.9570 C   0  0  0  0  0  0  0  0  0  0  0  0
   -0.6280   14.7140   -3.9220 C   0  0  2  0  0  0  0  0  0  0  0  0
   -0.6320   12.9620   -4.3160 S   0  0  2  0  0  0  0  0  0  0  0  0
   -2.0780   15.0840   -3.5580 C   0  0  0  0  0  0  0  0  0  0  0  0
    0.8490   12.2290   -3.7770 C   0  0  0  0  0  0  0  0  0  0  0  0
   -2.8500   15.5460   -4.4050 O   0  0  0  0  0  0  0  0  0  0  0  0
   -0.3730   12.6030   -5.8750 O   0  0  0  0  0  0  0  0  0  0  0  0
   -2.5120   14.8810   -2.2410 N   0  0  0  0  0  0  0  0  0  0  0  0
    0.6540   11.6080   -2.4500 C   0  0  0  0  0  0  0  0  0  0  0  0
   -3.9100   15.1030   -1.8930 C   0  0  0  0  0  0  0  0  0  0  0  0
   -1.7680   14.7810   -1.0460 C   0  0  0  0  0  0  0  0  0  0  0  0
   -0.8860   11.3570   -6.1410 C   0  0  0  0  0  0  0  0  0  0  0  0
    0.7890   12.1610   -1.4060 O   0  0  0  0  0  0  0  0  0  0  0  0
    0.2860   10.3380   -2.4390 O   0  0  0  0  0  0  0  0  0  0  0  0
   -0.5650   14.8330   -0.8810 O   0  0  0  0  0  0  0  0  0  0  0  0
   -3.9430   15.1580   -0.3720 C   0  0  0  0  0  0  0  0  0  0  0  0
   -2.6690   14.6240   -0.0030 N   0  0  0  0  0  0  0  0  0  0  0  0
   -0.3210   10.3120   -6.8740 C   0  0  0  0  0  0  0  0  0  0  0  0
   -2.1380   11.1950   -5.5560 C   0  0  0  0  0  0  0  0  0  0  0  0
   -1.0320    9.1080   -7.0070 C   0  0  0  0  0  0  0  0  0  0  0  0
   -2.8410   10.0050   -5.6880 C   0  0  0  0  0  0  0  0  0  0  0  0
   -2.2890    8.9610   -6.4140 C   0  0  0  0  0  0  0  0  0  0  0  0
  2  1  1  6
  2  3  1  0
  2  4  1  0
  3  5  1  1
  4  6  2  0
  3  7  1  0
  4  8  1  0
  5  9  1  0
  8 10  1  0
  8 11  1  0
  7 12  1  0
  9 13  2  0
  9 14  1  0
 11 15  2  0
 10 16  1  0
 11 17  1  0
 16 17  1  0
 12 18  2  0
 12 19  1  0
 18 20  1  0
 19 21  2  0
 20 22  2  0
 21 22  1  0
M  END
