mac-x0337-mac-x0303
     RDKit          3D

 24 26  0  0  0  0  0  0  0  0999 V2000
   -6.0250    9.6680   -2.1910 C   0  0  0  0  0  0  0  0  0  0  0  0
   -5.1620   10.8100   -1.7370 C   0  0  0  0  0  0  0  0  0  0  0  0
   -5.5350   11.5920   -0.6370 C   0  0  0  0  0  0  0  0  0  0  0  0
   -3.9690   11.1030   -2.4070 C   0  0  0  0  0  0  0  0  0  0  0  0
   -3.1530   12.1550   -1.9860 C   0  0  0  0  0  0  0  0  0  0  0  0
   -4.7190   12.6490   -0.2040 C   0  0  0  0  0  0  0  0  0  0  0  0
   -3.5170   12.9330   -0.8800 C   0  0  0  0  0  0  0  0  0  0  0  0
   -2.4080   14.2690   -0.3710 S   0  0  0  0  0  0  0  0  0  0  0  0
   -1.9710   14.9250   -1.5880 O   0  0  0  0  0  0  0  0  0  0  0  0
   -1.4810   13.7790    0.5980 O   0  0  0  0  0  0  0  0  0  0  0  0
   -3.4020   15.3070    0.4760 N   0  0  0  0  0  0  0  0  0  0  0  0
   -4.4190   15.2520   -0.3990 C   0  0  0  0  0  0  0  0  0  0  0  0
   -5.7020   15.0420    0.0060 C   0  0  0  0  0  0  0  0  0  0  0  0
   -4.0880   15.3910   -1.7230 C   0  0  0  0  0  0  0  0  0  0  0  0
   -6.6680   14.9800   -0.9660 C   0  0  0  0  0  0  0  0  0  0  0  0
   -6.1960   14.8730    1.2650 N   0  0  0  0  0  0  0  0  0  0  0  0
   -5.0550   15.3150   -2.6760 C   0  0  0  0  0  0  0  0  0  0  0  0
   -7.4820   14.7180    1.0690 C   0  0  0  0  0  0  0  0  0  0  0  0
   -7.8160   14.7730   -0.2580 N   0  0  0  0  0  0  0  0  0  0  0  0
   -6.3880   15.1120   -2.3230 C   0  0  0  0  0  0  0  0  0  0  0  0
   -8.6640   14.4740    2.3390 S   0  0  0  0  0  0  0  0  0  0  0  0
   -8.2130   13.0310    3.0840 N   0  0  0  0  0  0  0  0  0  0  0  0
   -8.4440   15.5700    3.2490 O   0  0  0  0  0  0  0  0  0  0  0  0
   -9.9070   14.2770    1.6330 O   0  0  0  0  0  0  0  0  0  0  0  0
  1  2  1  0
  2  3  2  0
  2  4  1  0
  4  5  2  0
  3  6  1  0
  5  7  1  0
  6  7  2  0
  7  8  1  0
  8  9  2  0
  8 10  2  0
  8 11  1  0
 11 12  1  0
 12 13  1  0
 12 14  2  0
 13 15  2  0
 13 16  1  0
 14 17  1  0
 16 18  2  0
 15 19  1  0
 18 19  1  0
 15 20  1  0
 17 20  2  0
 18 21  1  0
 21 22  1  0
 21 23  2  0
 21 24  2  0
M  END
