mac-x0328-mac-x0411
     RDKit          3D

 24 25  0  0  0  0  0  0  0  0999 V2000
   -1.8550   15.2570   -3.7730 O   0  0  0  0  0  0  0  0  0  0  0  0
   -1.9850   14.3750   -2.6720 C   0  0  0  0  0  0  0  0  0  0  0  0
   -0.9250   14.7230   -1.7980 O   0  0  0  0  0  0  0  0  0  0  0  0
   -1.7630   12.9260   -3.2040 C   0  0  0  0  0  0  0  0  0  0  0  0
   -3.3520   14.6710   -2.0670 C   0  0  0  0  0  0  0  0  0  0  0  0
   -1.5610   12.7950   -4.7340 C   0  0  0  0  0  0  0  0  0  0  0  0
   -3.5330   14.7110   -0.6650 C   0  0  0  0  0  0  0  0  0  0  0  0
   -4.4760   14.9060   -2.8700 C   0  0  0  0  0  0  0  0  0  0  0  0
   -4.7890   14.9660   -0.0960 C   0  0  0  0  0  0  0  0  0  0  0  0
   -5.7270   15.1600   -2.3070 C   0  0  0  0  0  0  0  0  0  0  0  0
   -1.5910   11.4110   -5.3980 C   0  0  0  0  0  0  0  0  0  0  0  0
   -5.8750   15.1840   -0.9330 C   0  0  0  0  0  0  0  0  0  0  0  0
   -0.5060   10.8490   -6.1310 C   0  0  0  0  0  0  0  0  0  0  0  0
   -2.7740   10.6480   -5.2880 C   0  0  0  0  0  0  0  0  0  0  0  0
   -7.1300   15.4270   -0.4650 O   0  0  0  0  0  0  0  0  0  0  0  0
    0.6980   11.5180   -6.2900 O   0  0  0  0  0  0  0  0  0  0  0  0
   -2.8900    9.3840   -5.8780 C   0  0  0  0  0  0  0  0  0  0  0  0
   -0.6440    9.5710   -6.7320 C   0  0  0  0  0  0  0  0  0  0  0  0
    0.6090    8.8230   -7.6650 Cl  0  0  0  0  0  0  0  0  0  0  0  0
    1.0470   12.4970   -5.2830 C   0  0  0  0  0  0  0  0  0  0  0  0
   -1.8290    8.8540   -6.5970 C   0  0  0  0  0  0  0  0  0  0  0  0
    0.8920   11.9180   -3.8830 C   0  0  0  0  0  0  0  0  0  0  0  0
    1.4440   12.6950   -2.9280 O   0  0  0  0  0  0  0  0  0  0  0  0
    0.3550   10.8660   -3.5710 O   0  0  0  0  0  0  0  0  0  0  0  0
  2  1  1  0
  2  3  1  0
  2  4  1  0
  2  5  1  0
  4  6  1  0
  5  7  2  0
  5  8  1  0
  7  9  1  0
  8 10  2  0
  6 11  1  0
  9 12  2  0
 10 12  1  0
 11 13  2  0
 11 14  1  0
 12 15  1  0
 13 16  1  0
 14 17  2  0
 13 18  1  0
 18 19  1  0
 16 20  1  0
 17 21  1  0
 18 21  2  0
 20 22  1  0
 22 23  1  0
 22 24  2  0
M  END
