mac-x0347-mac-x0277
     RDKit          3D

 24 26  0  0  0  0  0  0  0  0999 V2000
    1.1370   13.7890   -3.6220 O   0  0  0  0  0  0  0  0  0  0  0  0
    0.3200   13.1870   -2.6180 C   0  0  0  0  0  0  0  0  0  0  0  0
    0.9260   13.4480   -1.3720 O   0  0  0  0  0  0  0  0  0  0  0  0
    0.5640   14.8810   -4.1610 C   0  0  0  0  0  0  0  0  0  0  0  0
    0.3080   11.7720   -2.7180 O   0  0  0  0  0  0  0  0  0  0  0  0
   -1.0800   13.8040   -2.5970 C   0  0  0  0  0  0  0  0  0  0  0  0
   -0.7160   14.9230   -4.7020 C   0  0  0  0  0  0  0  0  0  0  0  0
    1.3300   16.0290   -4.1350 C   0  0  0  0  0  0  0  0  0  0  0  0
   -1.8640   13.9410   -1.4390 C   0  0  0  0  0  0  0  0  0  0  0  0
   -1.6700   14.2690   -3.7690 C   0  0  0  0  0  0  0  0  0  0  0  0
   -1.2400   16.1190   -5.1910 C   0  0  0  0  0  0  0  0  0  0  0  0
    0.8210   17.2280   -4.6310 C   0  0  0  0  0  0  0  0  0  0  0  0
   -2.8560   16.1140   -5.8280 Cl  0  0  0  0  0  0  0  0  0  0  0  0
   -3.1520   14.5070   -1.5090 C   0  0  0  0  0  0  0  0  0  0  0  0
   -2.9010   14.8260   -3.8700 N   0  0  0  0  0  0  0  0  0  0  0  0
   -0.4720   17.2680   -5.1560 C   0  0  0  0  0  0  0  0  0  0  0  0
   -1.0850   18.7620   -5.7450 Cl  0  0  0  0  0  0  0  0  0  0  0  0
   -3.6040   14.9300   -2.7440 C   0  0  0  0  0  0  0  0  0  0  0  0
   -4.0140   14.6430   -0.3500 C   0  0  0  0  0  0  0  0  0  0  0  0
   -3.6420   15.3330    0.8070 C   0  0  0  0  0  0  0  0  0  0  0  0
   -5.2820   14.0480   -0.4060 C   0  0  0  0  0  0  0  0  0  0  0  0
   -4.5220   15.4110    1.8800 C   0  0  0  0  0  0  0  0  0  0  0  0
   -6.1600   14.1240    0.6660 C   0  0  0  0  0  0  0  0  0  0  0  0
   -5.7770   14.8080    1.8100 C   0  0  0  0  0  0  0  0  0  0  0  0
  2  1  1  0
  2  3  1  0
  1  4  1  0
  2  5  1  0
  2  6  1  0
  4  7  2  0
  4  8  1  0
  6  9  2  0
  6 10  1  0
  7 11  1  0
  8 12  2  0
 11 13  1  0
  9 14  1  0
 10 15  2  0
 11 16  2  0
 12 16  1  0
 16 17  1  0
 14 18  2  0
 15 18  1  0
 14 19  1  0
 19 20  2  0
 19 21  1  0
 20 22  1  0
 21 23  2  0
 22 24  2  0
 23 24  1  0
M  END
