mac-x0412-mac-x0188
     RDKit          3D

 19 21  0  0  0  0  0  0  0  0999 V2000
   -7.3550   14.8760   -0.9840 O   0  0  0  0  0  0  0  0  0  0  0  0
   -6.3880   14.9470   -0.2230 C   0  0  0  0  0  0  0  0  0  0  0  0
   -6.5570   14.6040    1.0900 N   0  0  0  0  0  0  0  0  0  0  0  0
   -4.9550   15.4180   -0.5970 C   0  0  1  0  0  0  0  0  0  0  0  0
   -3.7990   14.7620    0.1710 C   0  0  1  0  0  0  0  0  0  0  0  0
   -5.5470   14.2010    1.9000 C   0  0  0  0  0  0  0  0  0  0  0  0
   -4.6500   15.5240   -2.0620 C   0  0  0  0  0  0  0  0  0  0  0  0
   -4.2530   14.2490    1.5220 C   0  0  0  0  0  0  0  0  0  0  0  0
   -3.0200   13.6770   -0.6550 C   0  0  0  0  0  0  0  0  0  0  0  0
   -3.5990   14.9780   -2.7390 C   0  0  0  0  0  0  0  0  0  0  0  0
   -2.5510   14.0600   -2.1240 C   0  0  2  0  0  0  0  0  0  0  0  0
   -2.8150   12.9870   -3.1450 N   0  0  0  0  0  0  0  0  0  0  0  0
   -1.0200   13.8190   -2.4540 C   0  0  2  0  0  0  0  0  0  0  0  0
    0.1340   14.2820   -1.6040 C   0  0  0  0  0  0  0  0  0  0  0  0
   -0.8670   14.0730   -3.9370 C   0  0  2  0  0  0  0  0  0  0  0  0
   -2.0090   13.3240   -4.3710 O   0  0  0  0  0  0  0  0  0  0  0  0
    0.4210   13.5100   -4.5680 C   0  0  0  0  0  0  0  0  0  0  0  0
    0.6860   15.3650   -1.6270 O   0  0  0  0  0  0  0  0  0  0  0  0
    0.5650   13.2940   -0.7490 O   0  0  0  0  0  0  0  0  0  0  0  0
  1  2  2  0
  2  3  1  0
  2  4  1  0
  4  5  1  0
  3  6  1  0
  4  7  1  6
  5  8  1  1
  6  8  2  0
  5  9  1  0
  7 10  2  0
 11  9  1  1
 11 10  1  0
 11 12  1  0
 11 13  1  0
 13 14  1  1
 13 15  1  0
 12 16  1  0
 15 16  1  0
 15 17  1  6
 14 18  2  0
 14 19  1  0
M  END
