mac-x0455-diamond-x0900_1_A
     RDKit          3D

 17 18  0  0  0  0  0  0  0  0999 V2000
   -2.2910   14.2260   -2.7370 C   0  0  0  0  0  0  0  0  0  0  0  0
   -0.9840   13.9830   -3.5000 C   0  0  1  0  0  0  0  0  0  0  0  0
   -0.9150   15.0560   -4.4730 O   0  0  0  0  0  0  0  0  0  0  0  0
    0.1950   14.1480   -2.5270 C   0  0  0  0  0  0  0  0  0  0  0  0
   -0.9130   12.5870   -4.2290 C   0  0  1  0  0  0  0  0  0  0  0  0
    0.6330   15.2170   -2.1370 O   0  0  0  0  0  0  0  0  0  0  0  0
    0.7610   13.0060   -2.1060 O   0  0  0  0  0  0  0  0  0  0  0  0
   -2.1920   12.1500   -4.9440 C   0  0  0  0  0  0  0  0  0  0  0  0
    0.2680   12.3700   -5.1600 C   0  0  0  0  0  0  0  0  0  0  0  0
   -2.1980   11.2200   -5.9370 C   0  0  0  0  0  0  0  0  0  0  0  0
    0.2630   11.4430   -6.1470 C   0  0  0  0  0  0  0  0  0  0  0  0
   -0.9320   10.5310   -6.4260 C   0  0  2  0  0  0  0  0  0  0  0  0
   -0.9010   10.1190   -7.9370 C   0  0  0  0  0  0  0  0  0  0  0  0
   -0.8350    9.1110   -5.7900 C   0  0  0  0  0  0  0  0  0  0  0  0
   -1.4250   10.6260   -8.9190 O   0  0  0  0  0  0  0  0  0  0  0  0
   -0.1090    8.9860   -8.0180 N   0  0  0  0  0  0  0  0  0  0  0  0
   -0.2130    8.1960   -6.8360 C   0  0  0  0  0  0  0  0  0  0  0  0
  2  1  1  1
  2  3  1  0
  2  4  1  0
  2  5  1  0
  4  6  2  0
  4  7  1  0
  5  8  1  6
  5  9  1  0
  8 10  2  0
  9 11  2  0
 12 10  1  6
 11 12  1  0
 12 13  1  0
 12 14  1  0
 13 15  2  0
 13 16  1  0
 14 17  1  0
 16 17  1  0
M  END
