mac-x0115-mac-x0283
     RDKit          3D

 25 28  0  0  0  0  0  0  0  0999 V2000
   -1.4330   18.5890   -5.1490 C   0  0  0  0  0  0  0  0  0  0  0  0
   -0.4170   17.6550   -5.7740 C   0  0  0  0  0  0  0  0  0  0  0  0
    1.0030   18.1470   -5.5670 C   0  0  0  0  0  0  0  0  0  0  0  0
   -0.6050   16.3770   -5.1610 O   0  0  0  0  0  0  0  0  0  0  0  0
    0.5830   15.7650   -4.6480 C   0  0  0  0  0  0  0  0  0  0  0  0
    0.2020   14.4960   -3.8660 C   0  0  0  0  0  0  0  0  0  0  0  0
   -0.0700   14.7500   -2.4260 N   0  0  0  0  0  0  0  0  0  0  0  0
    0.9030   14.4700   -1.4690 C   0  0  0  0  0  0  0  0  0  0  0  0
   -1.4020   14.7970   -1.9810 C   0  0  0  0  0  0  0  0  0  0  0  0
    2.5050   14.0600   -1.7850 S   0  0  0  0  0  0  0  0  0  0  0  0
    0.5160   14.5340   -0.1380 N   0  0  0  0  0  0  0  0  0  0  0  0
   -1.7490   14.7570   -0.6340 C   0  0  0  0  0  0  0  0  0  0  0  0
   -2.5830   14.8880   -2.7320 C   0  0  0  0  0  0  0  0  0  0  0  0
   -0.7590   14.6690    0.3970 C   0  0  0  0  0  0  0  0  0  0  0  0
   -3.1400   14.8100   -0.5350 N   0  0  0  0  0  0  0  0  0  0  0  0
   -3.6290   14.8940   -1.8520 C   0  0  0  0  0  0  0  0  0  0  0  0
   -0.9680   14.7020    1.6180 O   0  0  0  0  0  0  0  0  0  0  0  0
   -5.0310   14.9520   -2.0650 C   0  0  0  0  0  0  0  0  0  0  0  0
   -4.0170   14.7830    0.5850 C   0  0  0  0  0  0  0  0  0  0  0  0
   -5.8300   14.8980   -1.0040 C   0  0  0  0  0  0  0  0  0  0  0  0
   -5.3490   14.8110    0.3310 C   0  0  0  0  0  0  0  0  0  0  0  0
   -6.5900   14.7730    1.1250 C   0  0  0  0  0  0  0  0  0  0  0  0
   -7.2020   14.9180   -1.0200 O   0  0  0  0  0  0  0  0  0  0  0  0
   -6.7320   14.7120    2.4750 N   0  0  0  0  0  0  0  0  0  0  0  0
   -7.6420   14.8240    0.3430 N   0  0  0  0  0  0  0  0  0  0  0  0
  1  2  1  0
  2  3  1  0
  2  4  1  0
  4  5  1  0
  5  6  1  0
  6  7  1  0
  7  8  1  0
  7  9  1  0
  8 10  2  0
  8 11  1  0
  9 12  2  0
  9 13  1  0
 11 14  1  0
 12 14  1  0
 12 15  1  0
 13 16  2  0
 15 16  1  0
 14 17  2  0
 16 18  1  0
 15 19  1  0
 18 20  2  0
 19 21  2  0
 20 21  1  0
 21 22  1  0
 20 23  1  0
 22 24  1  0
 22 25  2  0
 23 25  1  0
M  END
