mac-x0159-diamond-x0253_0_A
     RDKit          3D

 32 35  0  0  0  0  0  0  0  0999 V2000
   -4.5860   14.8790    1.0550 N   0  0  0  0  0  0  0  0  0  0  0  0
   -3.5940   15.2920    0.1020 C   0  0  1  0  0  0  0  0  0  0  0  0
   -2.1220   15.0460    0.4920 C   0  0  2  0  0  0  0  0  0  0  0  0
   -3.9490   14.5880   -1.1170 N   0  0  0  0  0  0  0  0  0  0  0  0
   -3.1550   14.9870   -2.2770 C   0  0  0  0  0  0  0  0  0  0  0  0
   -1.4010   14.4110   -0.6870 C   0  0  1  0  0  0  0  0  0  0  0  0
   -1.6300   14.1710    1.5250 N   0  0  0  0  0  0  0  0  0  0  0  0
   -1.7180   14.9930   -1.9790 N   0  0  0  0  0  0  0  0  0  0  0  0
   -0.0580   14.6710   -0.2040 N   0  0  0  0  0  0  0  0  0  0  0  0
   -0.1970   14.2060    1.1870 C   0  0  0  0  0  0  0  0  0  0  0  0
   -0.8010   14.6020   -3.0800 C   0  0  2  0  0  0  0  0  0  0  0  0
    0.3440   13.8290   -2.3840 C   0  0  0  0  0  0  0  0  0  0  0  0
   -0.3710   15.7870   -3.9630 C   0  0  0  0  0  0  0  0  0  0  0  0
    0.9160   12.6130   -3.1110 C   0  0  0  0  0  0  0  0  0  0  0  0
    0.9090   16.3020   -4.1050 C   0  0  0  0  0  0  0  0  0  0  0  0
   -1.3320   16.4740   -4.7280 N   0  0  0  0  0  0  0  0  0  0  0  0
    2.1810   12.4440   -2.5090 O   0  0  0  0  0  0  0  0  0  0  0  0
    0.2030   11.3960   -2.8940 O   0  0  0  0  0  0  0  0  0  0  0  0
    1.0370   12.8670   -4.6300 C   0  0  0  0  0  0  0  0  0  0  0  0
   -0.7730   17.4640   -5.4000 C   0  0  0  0  0  0  0  0  0  0  0  0
    0.9060   17.6400   -5.1780 S   0  0  0  0  0  0  0  0  0  0  0  0
   -1.4910   18.4010   -6.3060 C   0  0  0  0  0  0  0  0  0  0  0  0
    0.3900   11.9000   -5.4910 N   0  0  0  0  0  0  0  0  0  0  0  0
    1.0920   11.6060   -6.6120 C   0  0  0  0  0  0  0  0  0  0  0  0
    2.2020   12.0650   -6.7260 O   0  0  0  0  0  0  0  0  0  0  0  0
    0.4620   10.6990   -7.6120 C   0  0  0  0  0  0  0  0  0  0  0  0
   -0.5120    9.7860   -7.2110 C   0  0  0  0  0  0  0  0  0  0  0  0
    0.8420   10.7540   -8.9590 C   0  0  0  0  0  0  0  0  0  0  0  0
   -1.1120    8.9310   -8.1420 C   0  0  0  0  0  0  0  0  0  0  0  0
    0.2530    9.9080   -9.8920 C   0  0  0  0  0  0  0  0  0  0  0  0
   -2.1590    7.9570   -7.6990 C   0  0  0  0  0  0  0  0  0  0  0  0
   -0.7220    8.9990   -9.4860 C   0  0  0  0  0  0  0  0  0  0  0  0
  2  1  1  1
  2  3  1  0
  2  4  1  0
  4  5  1  0
  3  6  1  0
  3  7  1  1
  5  8  1  0
  6  8  1  0
  6  9  1  1
  7 10  1  0
  9 10  1  0
  8 11  1  0
 11 12  1  1
 11 13  1  0
 12 14  1  0
 13 15  2  0
 13 16  1  0
 14 17  1  0
 14 18  1  0
 14 19  1  0
 16 20  2  0
 15 21  1  0
 20 21  1  0
 20 22  1  0
 19 23  1  0
 23 24  1  0
 24 25  2  0
 24 26  1  0
 26 27  2  0
 26 28  1  0
 27 29  1  0
 28 30  2  0
 29 31  1  0
 29 32  2  0
 30 32  1  0
M  END
