mac-x0302-mac-x0453
     RDKit          3D

 16 16  0  0  0  0  0  0  0  0999 V2000
    1.5550   14.2250   -3.7110 O   0  0  0  0  0  0  0  0  0  0  0  0
    0.5360   14.0550   -2.8540 C   0  0  0  0  0  0  0  0  0  0  0  0
    0.7230   13.5420   -1.7620 O   0  0  0  0  0  0  0  0  0  0  0  0
   -0.7900   14.5560   -3.3860 C   0  0  0  0  0  0  0  0  0  0  0  0
   -1.7210   14.6650   -2.2810 N   0  0  0  0  0  0  0  0  0  0  0  0
   -3.0070   15.1130   -2.4760 C   0  0  0  0  0  0  0  0  0  0  0  0
   -3.4010   15.5760   -3.5380 O   0  0  0  0  0  0  0  0  0  0  0  0
   -3.9090   15.0000   -1.3070 C   0  0  0  0  0  0  0  0  0  0  0  0
   -5.2980   15.0050   -1.4510 C   0  0  0  0  0  0  0  0  0  0  0  0
   -3.3380   14.8790   -0.0340 C   0  0  0  0  0  0  0  0  0  0  0  0
   -6.1010   14.8810   -0.3270 C   0  0  0  0  0  0  0  0  0  0  0  0
   -4.1530   14.7560    1.0870 C   0  0  0  0  0  0  0  0  0  0  0  0
   -7.4640   14.8830   -0.4560 O   0  0  0  0  0  0  0  0  0  0  0  0
   -5.5520   14.7510    0.9510 C   0  0  0  0  0  0  0  0  0  0  0  0
   -6.4470   14.6080    2.1490 C   0  0  0  0  0  0  0  0  0  0  0  0
   -6.6490   13.2340    2.5910 N   0  0  0  0  0  0  0  0  0  0  0  0
  1  2  1  0
  2  3  2  0
  2  4  1  0
  4  5  1  0
  5  6  1  0
  6  7  2  0
  6  8  1  0
  8  9  2  0
  8 10  1  0
  9 11  1  0
 10 12  2  0
 11 13  1  0
 11 14  2  0
 12 14  1  0
 14 15  1  0
 15 16  1  0
M  END
