mac-x0360-mac-x0263
     RDKit          3D

 26 28  0  0  0  0  0  0  0  0999 V2000
   -7.0660   12.0080    1.5620 Cl  0  0  0  0  0  0  0  0  0  0  0  0
   -5.9540   12.0500    0.2400 C   0  0  0  0  0  0  0  0  0  0  0  0
   -6.0700   11.0690   -0.7260 C   0  0  0  0  0  0  0  0  0  0  0  0
   -4.9530   13.0420    0.1310 C   0  0  0  0  0  0  0  0  0  0  0  0
   -4.0630   13.0340   -0.9860 C   0  0  0  0  0  0  0  0  0  0  0  0
   -5.1880   11.0640   -1.8010 C   0  0  0  0  0  0  0  0  0  0  0  0
   -5.3270    9.8290   -2.9830 Cl  0  0  0  0  0  0  0  0  0  0  0  0
   -2.7640   14.2750   -1.2260 S   0  0  1  0  0  0  0  0  0  0  0  0
   -4.1950   12.0320   -1.9400 C   0  0  0  0  0  0  0  0  0  0  0  0
   -1.7510   13.8870   -2.4890 N   0  0  0  0  0  0  0  0  0  0  0  0
   -3.4220   15.5080   -1.8230 N   0  0  0  0  0  0  0  0  0  0  0  0
   -1.9170   14.2540   -0.0590 O   0  0  0  0  0  0  0  0  0  0  0  0
   -4.4240   15.3820   -0.9330 C   0  0  0  0  0  0  0  0  0  0  0  0
   -5.7060   15.1320   -1.3210 C   0  0  0  0  0  0  0  0  0  0  0  0
   -3.9480   15.4840    0.3530 C   0  0  0  0  0  0  0  0  0  0  0  0
   -6.5420   14.9360   -0.2610 C   0  0  0  0  0  0  0  0  0  0  0  0
   -4.7920   15.2960    1.3910 C   0  0  0  0  0  0  0  0  0  0  0  0
   -7.8570   14.6530   -0.1860 N   0  0  0  0  0  0  0  0  0  0  0  0
   -6.1120   15.0020    1.0720 C   0  0  0  0  0  0  0  0  0  0  0  0
   -8.1670   14.5580    1.1370 C   0  0  0  0  0  0  0  0  0  0  0  0
   -7.1420   14.7590    1.9120 N   0  0  0  0  0  0  0  0  0  0  0  0
   -9.5270   14.2750    1.5790 C   0  0  0  0  0  0  0  0  0  0  0  0
  -10.2060   15.6100    1.8090 C   0  0  0  0  0  0  0  0  0  0  0  0
  -11.1650   15.5080    2.9400 C   0  0  0  0  0  0  0  0  0  0  0  0
  -11.9310   14.4060    2.8500 O   0  0  0  0  0  0  0  0  0  0  0  0
  -11.2880   16.2890    3.8630 O   0  0  0  0  0  0  0  0  0  0  0  0
  1  2  1  0
  2  3  2  0
  2  4  1  0
  4  5  2  0
  3  6  1  0
  6  7  1  0
  5  8  1  0
  5  9  1  0
  6  9  2  0
  8 10  1  6
  8 11  2  0
  8 12  2  0
 11 13  1  0
 13 14  2  0
 13 15  1  0
 14 16  1  0
 15 17  2  0
 16 18  1  0
 16 19  2  0
 17 19  1  0
 18 20  1  0
 19 21  1  0
 20 21  2  0
 20 22  1  0
 22 23  1  0
 23 24  1  0
 24 25  1  0
 24 26  2  0
M  END
