mac-x0472-mac-x0123
     RDKit          3D

 27 31  0  0  0  0  0  0  0  0999 V2000
   -2.1640   14.9480   -2.6860 O   0  0  0  0  0  0  0  0  0  0  0  0
   -1.4980   13.6980   -2.3760 S   0  0  0  0  0  0  0  0  0  0  0  0
   -0.3780   13.2820   -3.1890 O   0  0  0  0  0  0  0  0  0  0  0  0
   -0.9210   13.7240   -0.7660 N   0  0  0  0  0  0  0  0  0  0  0  0
   -2.7350   12.3990   -2.4730 C   0  0  0  0  0  0  0  0  0  0  0  0
   -2.0170   14.1580    0.0490 C   0  0  0  0  0  0  0  0  0  0  0  0
   -2.3820   11.0480   -2.4310 C   0  0  0  0  0  0  0  0  0  0  0  0
   -4.0890   12.7500   -2.5970 C   0  0  0  0  0  0  0  0  0  0  0  0
   -2.0450   14.6640    1.2660 N   0  0  0  0  0  0  0  0  0  0  0  0
   -3.4820   13.9970   -0.6780 S   0  0  0  0  0  0  0  0  0  0  0  0
   -3.3860   10.0770   -2.5080 C   0  0  0  0  0  0  0  0  0  0  0  0
   -5.0770   11.7720   -2.6680 C   0  0  0  0  0  0  0  0  0  0  0  0
   -4.2390   14.6430    0.6920 C   0  0  0  0  0  0  0  0  0  0  0  0
   -3.3690   14.9530    1.6520 N   0  0  0  0  0  0  0  0  0  0  0  0
   -4.7240   10.4320   -2.6230 C   0  0  0  0  0  0  0  0  0  0  0  0
   -5.6350   14.6950    0.4710 C   0  0  0  0  0  0  0  0  0  0  0  0
   -6.0110   14.7920   -0.8700 N   0  0  0  0  0  0  0  0  0  0  0  0
   -6.6170   14.6220    1.3790 C   0  0  0  0  0  0  0  0  0  0  0  0
   -7.3440   14.7910   -1.2810 C   0  0  0  0  0  0  0  0  0  0  0  0
   -8.0110   14.6480    0.8400 C   0  0  0  0  0  0  0  0  0  0  0  0
   -6.7280   14.5020    2.8420 C   0  0  0  0  0  0  0  0  0  0  0  0
   -5.2230   14.8890   -1.9730 N   0  0  0  0  0  0  0  0  0  0  0  0
   -8.3690   14.7190   -0.3950 N   0  0  0  0  0  0  0  0  0  0  0  0
   -9.0120   14.5720    1.9410 C   0  0  0  0  0  0  0  0  0  0  0  0
   -8.1620   14.9250    3.1590 C   0  0  0  0  0  0  0  0  0  0  0  0
   -7.4010   14.8650   -2.5860 N   0  0  0  0  0  0  0  0  0  0  0  0
   -6.1040   14.9230   -2.9570 C   0  0  0  0  0  0  0  0  0  0  0  0
  1  2  2  0
  2  3  2  0
  2  4  1  0
  2  5  1  0
  4  6  1  0
  5  7  2  0
  5  8  1  0
  6  9  2  0
  6 10  1  0
  7 11  1  0
  8 12  2  0
 10 13  1  0
  9 14  1  0
 13 14  2  0
 11 15  2  0
 12 15  1  0
 13 16  1  0
 16 17  1  0
 16 18  2  0
 17 19  1  0
 18 20  1  0
 18 21  1  0
 17 22  1  0
 19 23  1  0
 20 23  2  0
 20 24  1  0
 21 25  1  0
 24 25  1  0
 19 26  2  0
 22 27  2  0
 26 27  1  0
M  END
