mac-x0321-mac-x0137
     RDKit          3D

 20 22  0  0  0  0  0  0  0  0999 V2000
   -4.3400   13.4440    1.2400 Cl  0  0  0  0  0  0  0  0  0  0  0  0
   -4.0210   14.7840    0.0980 C   0  0  1  0  0  0  0  0  0  0  0  0
   -2.6890   14.7610   -0.7850 C   0  0  1  0  0  0  0  0  0  0  0  0
   -5.3180   15.2100   -0.5340 C   0  0  0  0  0  0  0  0  0  0  0  0
   -2.9580   14.9300   -2.3140 C   0  0  2  0  0  0  0  0  0  0  0  0
   -5.4650   15.4260   -1.8320 C   0  0  0  0  0  0  0  0  0  0  0  0
   -1.9690   15.8740   -0.0480 C   0  0  0  0  0  0  0  0  0  0  0  0
   -1.5130   13.6810   -0.7680 C   0  0  1  0  0  0  0  0  0  0  0  0
   -1.8850   15.7650   -3.0330 C   0  0  0  0  0  0  0  0  0  0  0  0
   -4.3610   15.2600   -2.8110 C   0  0  0  0  0  0  0  0  0  0  0  0
   -1.1790   13.1170   -2.1020 N   0  0  0  0  0  0  0  0  0  0  0  0
   -0.2360   14.0930   -0.1630 N   0  0  0  0  0  0  0  0  0  0  0  0
   -1.4740   15.4310    1.2480 N   0  0  0  0  0  0  0  0  0  0  0  0
   -0.6060   15.6140   -2.4290 O   0  0  0  0  0  0  0  0  0  0  0  0
   -1.7890   13.6210   -3.3420 C   0  0  0  0  0  0  0  0  0  0  0  0
    0.2480   12.9190   -2.3490 C   0  0  0  0  0  0  0  0  0  0  0  0
   -0.2950   14.6370    1.1430 C   0  0  0  0  0  0  0  0  0  0  0  0
   -1.6540   12.6880   -4.5400 C   0  0  0  0  0  0  0  0  0  0  0  0
    0.5010   11.8970   -3.4540 C   0  0  0  0  0  0  0  0  0  0  0  0
   -0.2110   12.2620   -4.7600 C   0  0  0  0  0  0  0  0  0  0  0  0
  2  1  1  6
  2  3  1  0
  2  4  1  0
  3  5  1  0
  4  6  2  0
  3  7  1  1
  3  8  1  0
  5  9  1  1
  5 10  1  0
  6 10  1  0
  8 11  1  6
  8 12  1  0
  7 13  1  0
  9 14  1  0
 11 15  1  0
 11 16  1  0
 12 17  1  0
 13 17  1  0
 15 18  1  0
 16 19  1  0
 18 20  1  0
 19 20  1  0
M  END
