mac-x0358-mac-x1493
     RDKit          3D

 24 26  0  0  0  0  0  0  0  0999 V2000
    1.7380   12.8800   -2.0700 O   0  0  0  0  0  0  0  0  0  0  0  0
    1.1770   12.2110   -3.0880 C   0  0  0  0  0  0  0  0  0  0  0  0
    0.6540   11.1200   -2.8970 O   0  0  0  0  0  0  0  0  0  0  0  0
    1.2540   12.9550   -4.3960 C   0  0  0  0  0  0  0  0  0  0  0  0
   -0.1250   13.3470   -4.8050 C   0  0  0  0  0  0  0  0  0  0  0  0
   -0.8550   12.6780   -5.7900 C   0  0  0  0  0  0  0  0  0  0  0  0
   -0.7230   14.4170   -4.1380 C   0  0  0  0  0  0  0  0  0  0  0  0
   -0.3480   11.6090   -6.4570 O   0  0  0  0  0  0  0  0  0  0  0  0
   -2.1380   13.0600   -6.1390 C   0  0  0  0  0  0  0  0  0  0  0  0
   -2.0120   14.7710   -4.4600 C   0  0  0  0  0  0  0  0  0  0  0  0
   -2.7410   15.7140   -3.8120 N   0  0  0  0  0  0  0  0  0  0  0  0
   -2.7150   14.1100   -5.4650 C   0  0  0  0  0  0  0  0  0  0  0  0
   -3.0360   14.9480   -2.8150 C   0  0  0  0  0  0  0  0  0  0  0  0
   -2.4090   13.7670   -2.6700 O   0  0  0  0  0  0  0  0  0  0  0  0
   -4.0140   15.0000   -1.7540 C   0  0  0  0  0  0  0  0  0  0  0  0
   -3.8280   15.1700   -0.3860 C   0  0  0  0  0  0  0  0  0  0  0  0
   -5.2850   14.7980   -2.2310 C   0  0  0  0  0  0  0  0  0  0  0  0
   -4.9740   15.0870    0.4330 C   0  0  0  0  0  0  0  0  0  0  0  0
   -6.3860   14.7310   -1.4910 N   0  0  0  0  0  0  0  0  0  0  0  0
   -6.2340   14.8550   -0.1850 C   0  0  0  0  0  0  0  0  0  0  0  0
   -4.9220   15.2150    1.8240 C   0  0  0  0  0  0  0  0  0  0  0  0
   -7.3760   14.7490    0.5880 C   0  0  0  0  0  0  0  0  0  0  0  0
   -6.1010   15.1090    2.5740 C   0  0  0  0  0  0  0  0  0  0  0  0
   -7.3240   14.8710    1.9660 C   0  0  0  0  0  0  0  0  0  0  0  0
  1  2  1  0
  2  3  2  0
  2  4  1  0
  4  5  1  0
  5  6  2  0
  5  7  1  0
  6  8  1  0
  6  9  1  0
  7 10  2  0
 10 11  1  0
  9 12  2  0
 10 12  1  0
 11 13  2  3
 13 14  1  0
 13 15  1  0
 15 16  2  0
 15 17  1  0
 16 18  1  0
 17 19  2  0
 18 20  2  0
 19 20  1  0
 18 21  1  0
 20 22  1  0
 21 23  2  0
 22 24  2  0
 23 24  1  0
M  END
