mac-x0326-mac-x0404
     RDKit          3D

 25 28  0  0  0  0  0  0  0  0999 V2000
   -6.1380   15.5420   -1.2640 Cl  0  0  0  0  0  0  0  0  0  0  0  0
   -4.4550   15.2210   -1.1110 C   0  0  0  0  0  0  0  0  0  0  0  0
   -3.6950   15.0700   -2.2550 C   0  0  0  0  0  0  0  0  0  0  0  0
   -3.8690   15.1120    0.1510 C   0  0  0  0  0  0  0  0  0  0  0  0
   -2.3260   14.8020   -2.1230 C   0  0  0  0  0  0  0  0  0  0  0  0
   -2.4930   14.8420    0.2930 C   0  0  0  0  0  0  0  0  0  0  0  0
   -1.4850   14.6380   -3.1590 N   0  0  0  0  0  0  0  0  0  0  0  0
   -1.7230   14.6860   -0.8720 C   0  0  0  0  0  0  0  0  0  0  0  0
   -0.2550   14.4030   -2.7780 C   0  0  0  0  0  0  0  0  0  0  0  0
   -0.0170   14.3540   -1.0770 S   0  0  0  0  0  0  0  0  0  0  0  0
    0.6910   14.2450   -3.9400 C   0  0  1  0  0  0  0  0  0  0  0  0
    1.0070   12.8130   -4.3450 C   0  0  0  0  0  0  0  0  0  0  0  0
   -0.4570   14.8650   -4.6630 C   0  0  0  0  0  0  0  0  0  0  0  0
    1.0470   12.0060   -3.0950 C   0  0  0  0  0  0  0  0  0  0  0  0
   -0.4290   16.1970   -5.0530 C   0  0  0  0  0  0  0  0  0  0  0  0
   -1.5960   14.0620   -4.8790 C   0  0  0  0  0  0  0  0  0  0  0  0
    0.3140   10.8770   -3.1160 O   0  0  0  0  0  0  0  0  0  0  0  0
    1.6970   12.3530   -2.1270 O   0  0  0  0  0  0  0  0  0  0  0  0
   -1.5910   16.7320   -5.6470 C   0  0  0  0  0  0  0  0  0  0  0  0
   -2.7280   14.5910   -5.4660 C   0  0  0  0  0  0  0  0  0  0  0  0
    0.6870   17.0280   -4.8790 C   0  0  0  0  0  0  0  0  0  0  0  0
   -2.7270   15.9270   -5.8400 C   0  0  0  0  0  0  0  0  0  0  0  0
   -1.6030   18.0620   -6.0460 C   0  0  0  0  0  0  0  0  0  0  0  0
    0.6660   18.3430   -5.2860 C   0  0  0  0  0  0  0  0  0  0  0  0
   -0.4850   18.8630   -5.8710 C   0  0  0  0  0  0  0  0  0  0  0  0
  1  2  1  0
  2  3  2  0
  2  4  1  0
  3  5  1  0
  4  6  2  0
  5  7  1  0
  5  8  2  0
  6  8  1  0
  7  9  2  0
  8 10  1  0
  9 10  1  0
  9 11  1  0
 11 12  1  6
 11 13  1  0
 12 14  1  0
 13 15  1  0
 13 16  2  0
 14 17  1  0
 14 18  2  0
 15 19  2  0
 16 20  1  0
 15 21  1  0
 19 22  1  0
 20 22  2  0
 19 23  1  0
 21 24  2  0
 23 25  2  0
 24 25  1  0
M  END
