mac-x0138-mac-x0546
     RDKit          3D

 29 32  0  0  0  0  0  0  0  0999 V2000
   -1.6770   14.8440   -3.2800 C   0  0  0  0  0  0  0  0  0  0  0  0
   -2.6960   15.0270   -2.2990 N   0  0  0  0  0  0  0  0  0  0  0  0
   -4.0110   15.3040   -2.4780 C   0  0  0  0  0  0  0  0  0  0  0  0
   -2.4780   14.9470   -0.9830 C   0  0  0  0  0  0  0  0  0  0  0  0
   -4.6430   15.4080   -1.3240 N   0  0  0  0  0  0  0  0  0  0  0  0
   -3.6710   15.1810   -0.3750 C   0  0  0  0  0  0  0  0  0  0  0  0
   -1.3450   14.6980   -0.4090 N   0  0  0  0  0  0  0  0  0  0  0  0
   -3.6580   15.1450    1.0250 C   0  0  0  0  0  0  0  0  0  0  0  0
   -1.4420   14.6740    0.9050 C   0  0  0  0  0  0  0  0  0  0  0  0
   -4.8000   15.3790    1.7650 N   0  0  0  0  0  0  0  0  0  0  0  0
   -0.2390   14.3920    1.3500 N   0  0  0  0  0  0  0  0  0  0  0  0
   -2.4990   14.8690    1.6730 N   0  0  0  0  0  0  0  0  0  0  0  0
    0.3390   13.7960    0.1730 C   0  0  0  0  0  0  0  0  0  0  0  0
   -0.5900   13.2060   -0.9150 C   0  0  0  0  0  0  0  0  0  0  0  0
    0.0380   13.2330   -2.2170 N   0  0  0  0  0  0  0  0  0  0  0  0
    0.3150   12.2490   -2.9840 C   0  0  0  0  0  0  0  0  0  0  0  0
    0.9150   12.6180   -4.3160 C   0  0  0  0  0  0  0  0  0  0  0  0
    0.1120   10.9370   -2.7550 O   0  0  0  0  0  0  0  0  0  0  0  0
    0.9070   14.1010   -4.4260 C   0  0  0  0  0  0  0  0  0  0  0  0
   -0.0040   14.9030   -5.2920 C   0  0  1  0  0  0  0  0  0  0  0  0
    1.7110   14.9400   -3.7780 C   0  0  0  0  0  0  0  0  0  0  0  0
   -1.5040   14.9290   -5.2220 C   0  0  0  0  0  0  0  0  0  0  0  0
    0.5040   16.2610   -4.8600 C   0  0  0  0  0  0  0  0  0  0  0  0
    1.4720   16.2630   -4.0280 N   0  0  0  0  0  0  0  0  0  0  0  0
   -2.1750   16.1050   -5.3920 C   0  0  0  0  0  0  0  0  0  0  0  0
   -0.1300   17.4790   -5.3900 C   0  0  0  0  0  0  0  0  0  0  0  0
   -3.5280   16.2840   -5.3850 O   0  0  0  0  0  0  0  0  0  0  0  0
   -1.4460   17.3500   -5.6270 C   0  0  0  0  0  0  0  0  0  0  0  0
   -4.3270   15.2630   -5.9750 C   0  0  0  0  0  0  0  0  0  0  0  0
  1  2  1  0
  2  3  1  0
  2  4  1  0
  3  5  2  0
  4  6  2  0
  5  6  1  0
  4  7  1  0
  6  8  1  0
  7  9  2  0
  8 10  1  0
  9 11  1  0
  8 12  2  0
  9 12  1  0
 11 13  1  0
 13 14  1  0
 14 15  1  0
 15 16  2  3
 16 17  1  0
 16 18  1  0
 17 19  1  0
 19 20  1  0
 19 21  2  0
 20 22  1  1
 20 23  1  0
 21 24  1  0
 23 24  2  0
 22 25  2  0
 23 26  1  0
 25 27  1  0
 25 28  1  0
 26 28  2  0
 27 29  1  0
M  END
