mac-x0228-diamond-x0253_0_A
     RDKit          3D

 28 30  0  0  0  0  0  0  0  0999 V2000
   -1.0970   14.6800   -2.0160 O   0  0  0  0  0  0  0  0  0  0  0  0
   -2.1140   14.7440   -2.8870 C   0  0  0  0  0  0  0  0  0  0  0  0
   -1.8910   14.7450   -4.1660 N   0  0  0  0  0  0  0  0  0  0  0  0
   -3.4190   14.8130   -2.1930 C   0  0  0  0  0  0  0  0  0  0  0  0
   -0.5940   14.6890   -4.8870 C   0  0  0  0  0  0  0  0  0  0  0  0
   -3.5740   14.6170   -0.8120 C   0  0  0  0  0  0  0  0  0  0  0  0
   -4.5350   15.0900   -2.9950 C   0  0  0  0  0  0  0  0  0  0  0  0
    0.5790   14.2550   -4.0160 C   0  0  0  0  0  0  0  0  0  0  0  0
   -4.8640   14.7050   -0.2900 C   0  0  0  0  0  0  0  0  0  0  0  0
   -5.8180   15.1780   -2.4480 C   0  0  0  0  0  0  0  0  0  0  0  0
    1.0660   12.8220   -4.2870 C   0  0  2  0  0  0  0  0  0  0  0  0
   -5.9520   14.9820   -1.0990 C   0  0  0  0  0  0  0  0  0  0  0  0
   -5.3320   14.5380    1.0970 C   0  0  0  0  0  0  0  0  0  0  0  0
    0.3730   12.1190   -5.3760 N   0  0  0  0  0  0  0  0  0  0  0  0
    0.8610   12.0640   -2.9760 C   0  0  0  0  0  0  0  0  0  0  0  0
   -7.1490   15.0350   -0.4240 O   0  0  0  0  0  0  0  0  0  0  0  0
   -6.8360   14.4080    0.8390 C   0  0  0  0  0  0  0  0  0  0  0  0
    1.1710   12.5410   -1.8930 O   0  0  0  0  0  0  0  0  0  0  0  0
    0.3190   10.8360   -3.1080 O   0  0  0  0  0  0  0  0  0  0  0  0
    1.0840   11.7450   -6.4980 C   0  0  0  0  0  0  0  0  0  0  0  0
    2.2100   12.1630   -6.6580 O   0  0  0  0  0  0  0  0  0  0  0  0
    0.4530   10.7920   -7.4780 C   0  0  0  0  0  0  0  0  0  0  0  0
   -0.5260    9.8780   -7.0760 C   0  0  0  0  0  0  0  0  0  0  0  0
    0.8430   10.8030   -8.8300 C   0  0  0  0  0  0  0  0  0  0  0  0
   -1.1060    8.9940   -8.0010 C   0  0  0  0  0  0  0  0  0  0  0  0
    0.2720    9.9290   -9.7520 C   0  0  0  0  0  0  0  0  0  0  0  0
   -2.1550    8.0220   -7.5560 C   0  0  0  0  0  0  0  0  0  0  0  0
   -0.7000    9.0270   -9.3390 C   0  0  0  0  0  0  0  0  0  0  0  0
  1  2  1  0
  2  3  2  3
  2  4  1  0
  3  5  1  0
  4  6  2  0
  4  7  1  0
  5  8  1  0
  6  9  1  0
  7 10  2  0
 11  8  1  1
  9 12  2  0
 10 12  1  0
  9 13  1  0
 11 14  1  0
 11 15  1  0
 12 16  1  0
 13 17  1  0
 16 17  1  0
 15 18  2  0
 15 19  1  0
 14 20  1  0
 20 21  2  0
 20 22  1  0
 22 23  2  0
 22 24  1  0
 23 25  1  0
 24 26  2  0
 25 27  1  0
 25 28  2  0
 26 28  1  0
M  END
