mac-x0228-diamond-x0962_2_B
     RDKit          3D

 21 23  0  0  0  0  0  0  0  0999 V2000
   -0.9990   14.6370   -1.6500 O   0  0  0  0  0  0  0  0  0  0  0  0
   -1.9320   14.7120   -2.6100 C   0  0  0  0  0  0  0  0  0  0  0  0
   -1.6300   14.7200   -3.7900 O   0  0  0  0  0  0  0  0  0  0  0  0
   -3.3120   14.7800   -2.0780 C   0  0  0  0  0  0  0  0  0  0  0  0
   -3.6280   14.5240   -0.7290 C   0  0  0  0  0  0  0  0  0  0  0  0
   -4.3270   15.1130   -2.9970 C   0  0  0  0  0  0  0  0  0  0  0  0
   -4.9630   14.6040   -0.3600 C   0  0  0  0  0  0  0  0  0  0  0  0
   -5.6570   15.1910   -2.5970 C   0  0  0  0  0  0  0  0  0  0  0  0
   -5.9360   14.9350   -1.2920 C   0  0  0  0  0  0  0  0  0  0  0  0
   -5.6440   14.3790    0.9390 C   0  0  0  0  0  0  0  0  0  0  0  0
   -7.1830   14.9630   -0.7640 O   0  0  0  0  0  0  0  0  0  0  0  0
   -6.9750   14.0050    0.2770 C   0  0  2  0  0  0  0  0  0  0  0  0
   -8.2300   13.8560    1.1000 C   0  0  0  0  0  0  0  0  0  0  0  0
   -9.4100   14.7520    0.7010 C   0  0  0  0  0  0  0  0  0  0  0  0
   -9.7570   15.8700    1.6760 C   0  0  1  0  0  0  0  0  0  0  0  0
  -11.1820   16.1380    1.6970 N   0  0  0  0  0  0  0  0  0  0  0  0
   -9.1530   15.5990    3.0090 C   0  0  0  0  0  0  0  0  0  0  0  0
   -8.9030   16.5130    4.0030 N   0  0  0  0  0  0  0  0  0  0  0  0
   -8.7070   14.4020    3.5430 C   0  0  0  0  0  0  0  0  0  0  0  0
   -8.3290   15.8410    5.0490 C   0  0  0  0  0  0  0  0  0  0  0  0
   -8.2010   14.5630    4.7950 N   0  0  0  0  0  0  0  0  0  0  0  0
  1  2  1  0
  2  3  2  0
  2  4  1  0
  4  5  2  0
  4  6  1  0
  5  7  1  0
  6  8  2  0
  7  9  2  0
  8  9  1  0
  7 10  1  0
  9 11  1  0
 10 12  1  0
 11 12  1  0
 12 13  1  1
 13 14  1  0
 14 15  1  0
 15 16  1  1
 15 17  1  0
 17 18  1  0
 17 19  2  0
 18 20  1  0
 19 21  1  0
 20 21  2  0
M  END
