mac-x0375-mac-x0564
     RDKit          3D

 24 27  0  0  0  0  0  0  0  0999 V2000
    1.4570   13.6000   -3.3710 O   0  0  0  0  0  0  0  0  0  0  0  0
    1.2210   12.3900   -3.9630 C   0  0  0  0  0  0  0  0  0  0  0  0
    1.1470   11.3490   -3.3340 O   0  0  0  0  0  0  0  0  0  0  0  0
    0.1810   14.0000   -3.0800 N   0  0  0  0  0  0  0  0  0  0  0  0
    1.0230   12.5870   -5.4640 C   0  0  0  0  0  0  0  0  0  0  0  0
   -0.2110   14.1670   -1.8160 C   0  0  0  0  0  0  0  0  0  0  0  0
   -0.6240   14.1770   -4.1370 C   0  0  0  0  0  0  0  0  0  0  0  0
    0.9130   11.3830   -6.2090 O   0  0  0  0  0  0  0  0  0  0  0  0
   -1.5340   14.5020   -1.6950 C   0  0  0  0  0  0  0  0  0  0  0  0
   -1.9130   14.5130   -4.0840 N   0  0  0  0  0  0  0  0  0  0  0  0
   -0.2980   10.7260   -6.1720 C   0  0  0  0  0  0  0  0  0  0  0  0
   -2.3480   14.6520   -2.8110 C   0  0  0  0  0  0  0  0  0  0  0  0
   -2.2300   14.7170   -0.5540 O   0  0  0  0  0  0  0  0  0  0  0  0
   -0.4340    9.5280   -6.8640 C   0  0  0  0  0  0  0  0  0  0  0  0
   -1.3790   11.2470   -5.4520 C   0  0  0  0  0  0  0  0  0  0  0  0
   -3.5130   14.9820   -0.9390 C   0  0  0  0  0  0  0  0  0  0  0  0
   -3.6270   14.9480   -2.3260 C   0  0  0  0  0  0  0  0  0  0  0  0
   -1.6420    8.8390   -6.8460 C   0  0  0  0  0  0  0  0  0  0  0  0
   -2.5920   10.5500   -5.4370 C   0  0  0  0  0  0  0  0  0  0  0  0
   -4.8630   15.1830   -2.9150 C   0  0  0  0  0  0  0  0  0  0  0  0
   -4.5790   15.2440   -0.0910 C   0  0  0  0  0  0  0  0  0  0  0  0
   -2.7240    9.3500   -6.1320 C   0  0  0  0  0  0  0  0  0  0  0  0
   -5.9550   15.4440   -2.0940 C   0  0  0  0  0  0  0  0  0  0  0  0
   -5.8100   15.4710   -0.7110 C   0  0  0  0  0  0  0  0  0  0  0  0
  1  2  1  0
  2  3  2  0
  1  4  1  0
  2  5  1  0
  4  6  2  0
  4  7  1  0
  5  8  1  0
  6  9  1  0
  7 10  2  0
  8 11  1  0
  9 12  2  0
 10 12  1  0
  9 13  1  0
 11 14  2  0
 11 15  1  0
 13 16  1  0
 12 17  1  0
 16 17  2  0
 14 18  1  0
 15 19  2  0
 17 20  1  0
 16 21  1  0
 18 22  2  0
 19 22  1  0
 20 23  2  0
 21 24  2  0
 23 24  1  0
M  CHG  1   4   1
M  END
