mac-x0179-mac-x0415
     RDKit          3D

 25 28  0  0  0  0  0  0  0  0999 V2000
    1.8070   12.7780   -2.1620 O   0  0  0  0  0  0  0  0  0  0  0  0
    1.0370   12.0420   -2.9790 C   0  0  0  0  0  0  0  0  0  0  0  0
    0.8900   10.8590   -2.7510 O   0  0  0  0  0  0  0  0  0  0  0  0
    0.3850   12.7920   -4.1330 C   0  0  2  0  0  0  0  0  0  0  0  0
   -0.0320   11.8500   -5.1880 N   0  0  0  0  0  0  0  0  0  0  0  0
    1.0700   14.0720   -4.6100 C   0  0  2  0  0  0  0  0  0  0  0  0
    0.6820   11.5340   -6.3250 C   0  0  0  0  0  0  0  0  0  0  0  0
   -1.1760   11.1170   -5.1100 C   0  0  0  0  0  0  0  0  0  0  0  0
    1.6980   15.0300   -3.5830 C   0  0  0  0  0  0  0  0  0  0  0  0
    0.0650   14.9570   -5.3090 C   0  0  2  0  0  0  0  0  0  0  0  0
    1.7200   12.0020   -6.7310 O   0  0  0  0  0  0  0  0  0  0  0  0
   -2.0580   11.1710   -4.2770 O   0  0  0  0  0  0  0  0  0  0  0  0
   -0.0560   10.4500   -6.9930 C   0  0  0  0  0  0  0  0  0  0  0  0
   -1.1880   10.1990   -6.2430 C   0  0  0  0  0  0  0  0  0  0  0  0
    1.0090   16.3240   -3.7620 N   0  0  0  0  0  0  0  0  0  0  0  0
    0.5710   16.3890   -5.1360 C   0  0  2  0  0  0  0  0  0  0  0  0
   -1.4230   14.7310   -4.9910 C   0  0  0  0  0  0  0  0  0  0  0  0
    0.2220    9.7340   -8.1450 C   0  0  0  0  0  0  0  0  0  0  0  0
   -2.1080    9.2280   -6.5880 C   0  0  0  0  0  0  0  0  0  0  0  0
   -0.4560   17.4510   -5.4080 C   0  0  0  0  0  0  0  0  0  0  0  0
   -2.3670   15.9230   -4.9330 C   0  0  2  0  0  0  0  0  0  0  0  0
   -3.8630   15.4420   -6.0950 Br  0  0  0  0  0  0  0  0  0  0  0  0
   -0.6980    8.7410   -8.5180 C   0  0  0  0  0  0  0  0  0  0  0  0
   -1.8510    8.4910   -7.7460 C   0  0  0  0  0  0  0  0  0  0  0  0
   -1.7780   17.2450   -5.3260 C   0  0  0  0  0  0  0  0  0  0  0  0
  1  2  1  0
  2  3  2  0
  4  2  1  1
  4  5  1  0
  4  6  1  0
  5  7  1  0
  5  8  1  0
  6  9  1  1
  6 10  1  0
  7 11  2  0
  8 12  2  0
  7 13  1  0
  8 14  1  0
 13 14  2  0
  9 15  1  0
 10 16  1  0
 15 16  1  0
 10 17  1  1
 13 18  1  0
 14 19  1  0
 16 20  1  1
 17 21  1  0
 21 22  1  6
 18 23  2  0
 19 24  2  0
 23 24  1  0
 20 25  2  0
 21 25  1  0
M  END
