mac-x0360-mac-x0302
     RDKit          3D

 25 26  0  0  0  0  0  0  0  0999 V2000
   -7.3450   11.8850    1.7210 Cl  0  0  0  0  0  0  0  0  0  0  0  0
   -6.2920   11.6680    0.3770 C   0  0  0  0  0  0  0  0  0  0  0  0
   -6.6310   10.7320   -0.6000 C   0  0  0  0  0  0  0  0  0  0  0  0
   -5.1120   12.4070    0.2630 C   0  0  0  0  0  0  0  0  0  0  0  0
   -4.2850   12.1820   -0.8540 C   0  0  0  0  0  0  0  0  0  0  0  0
   -5.7870   10.5380   -1.6890 C   0  0  0  0  0  0  0  0  0  0  0  0
   -6.1770    9.3830   -2.8940 Cl  0  0  0  0  0  0  0  0  0  0  0  0
   -2.7630   13.0540   -1.0950 S   0  0  0  0  0  0  0  0  0  0  0  0
   -4.6160   11.2570   -1.8250 C   0  0  0  0  0  0  0  0  0  0  0  0
   -3.0980   14.5000   -2.1180 N   0  0  1  0  0  0  0  0  0  0  0  0
   -2.4410   13.6180    0.2010 O   0  0  0  0  0  0  0  0  0  0  0  0
   -1.8180   12.1950   -1.7470 O   0  0  0  0  0  0  0  0  0  0  0  0
   -1.8080   15.2180   -2.3680 N   0  0  0  0  0  0  0  0  0  0  0  0
   -3.7410   14.3000   -3.3130 O   0  0  0  0  0  0  0  0  0  0  0  0
   -4.0130   14.8220   -0.9710 C   0  0  0  0  0  0  0  0  0  0  0  0
   -1.0120   14.5800   -3.4400 C   0  0  0  0  0  0  0  0  0  0  0  0
   -5.4010   14.7150   -1.1260 C   0  0  0  0  0  0  0  0  0  0  0  0
   -3.4690   15.1630    0.2790 C   0  0  0  0  0  0  0  0  0  0  0  0
    0.4180   14.3360   -2.9590 C   0  0  0  0  0  0  0  0  0  0  0  0
   -6.2150   14.9140   -0.0330 C   0  0  0  0  0  0  0  0  0  0  0  0
   -4.2910   15.3580    1.3650 C   0  0  0  0  0  0  0  0  0  0  0  0
    1.3340   14.6130   -3.9050 O   0  0  0  0  0  0  0  0  0  0  0  0
    0.7700   13.9280   -1.8640 O   0  0  0  0  0  0  0  0  0  0  0  0
   -7.5760   14.8150   -0.1170 O   0  0  0  0  0  0  0  0  0  0  0  0
   -5.6570   15.2180    1.2070 C   0  0  0  0  0  0  0  0  0  0  0  0
  1  2  1  0
  2  3  2  0
  2  4  1  0
  4  5  2  0
  3  6  1  0
  6  7  1  0
  8  5  1  0
  5  9  1  0
  6  9  2  0
  8 10  1  0
  8 11  2  0
  8 12  2  0
 10 13  1  0
 10 14  1  6
 10 15  1  0
 13 16  1  0
 15 17  2  0
 15 18  1  0
 16 19  1  0
 17 20  1  0
 18 21  2  0
 19 22  1  0
 19 23  2  0
 20 24  1  0
 20 25  2  0
 21 25  1  0
M  CHG  2  10   1  14  -1
M  END
