mac-x0385-mac-x0375
     RDKit          3D

 22 23  0  0  0  0  0  0  0  0999 V2000
   -5.2450   15.5520   -0.6830 C   0  0  0  0  0  0  0  0  0  0  0  0
   -3.8280   15.2790   -0.3240 C   0  0  0  0  0  0  0  0  0  0  0  0
   -2.9160   14.9510   -1.2950 C   0  0  0  0  0  0  0  0  0  0  0  0
   -3.3370   15.3340    0.9690 C   0  0  0  0  0  0  0  0  0  0  0  0
   -4.1810   15.6650    2.0250 N   0  0  0  0  0  0  0  0  0  0  0  0
   -2.0500   15.0870    1.2890 N   0  0  0  0  0  0  0  0  0  0  0  0
   -1.6320   14.7010   -1.0390 N   0  0  0  0  0  0  0  0  0  0  0  0
   -1.2540   14.7840    0.2430 C   0  0  0  0  0  0  0  0  0  0  0  0
    0.1810   14.5180    0.4780 C   0  0  0  0  0  0  0  0  0  0  0  0
    0.9580   14.6940   -0.8370 C   0  0  0  0  0  0  0  0  0  0  0  0
    1.1890   13.3910   -1.5970 C   0  0  0  0  0  0  0  0  0  0  0  0
    0.8330   13.4870   -2.9710 O   0  0  0  0  0  0  0  0  0  0  0  0
    0.7780   12.3150   -3.6660 C   0  0  0  0  0  0  0  0  0  0  0  0
    0.7370   11.1990   -3.1590 O   0  0  0  0  0  0  0  0  0  0  0  0
    0.7700   12.6670   -5.1480 C   0  0  0  0  0  0  0  0  0  0  0  0
    0.7880   11.5070   -5.9610 O   0  0  0  0  0  0  0  0  0  0  0  0
   -0.3400   10.7380   -6.0680 C   0  0  0  0  0  0  0  0  0  0  0  0
   -0.4180    9.5500   -6.7980 C   0  0  0  0  0  0  0  0  0  0  0  0
   -1.4700   11.1950   -5.3880 C   0  0  0  0  0  0  0  0  0  0  0  0
   -1.6140    8.8320   -6.8460 C   0  0  0  0  0  0  0  0  0  0  0  0
   -2.6690   10.4760   -5.4360 C   0  0  0  0  0  0  0  0  0  0  0  0
   -2.7370    9.2920   -6.1670 C   0  0  0  0  0  0  0  0  0  0  0  0
  1  2  1  0
  2  3  2  0
  2  4  1  0
  4  5  1  0
  4  6  2  0
  3  7  1  0
  6  8  1  0
  7  8  2  0
  8  9  1  0
  9 10  1  0
 10 11  1  0
 11 12  1  0
 12 13  1  0
 13 14  2  0
 13 15  1  0
 15 16  1  0
 16 17  1  0
 17 18  2  0
 17 19  1  0
 18 20  1  0
 19 21  2  0
 20 22  2  0
 21 22  1  0
M  END
