mac-x0546-mac-x0375
     RDKit          3D

 22 24  0  0  0  0  0  0  0  0999 V2000
   -4.3500   15.4220   -6.1200 C   0  0  0  0  0  0  0  0  0  0  0  0
   -3.4430   16.5230   -6.0670 O   0  0  0  0  0  0  0  0  0  0  0  0
   -2.2840   16.3130   -5.3820 C   0  0  0  0  0  0  0  0  0  0  0  0
   -1.8410   15.1200   -4.9500 C   0  0  0  0  0  0  0  0  0  0  0  0
   -1.5070   17.5310   -5.1330 C   0  0  0  0  0  0  0  0  0  0  0  0
   -0.5700   15.0460   -4.1890 C   0  0  2  0  0  0  0  0  0  0  0  0
   -0.2110   17.5120   -4.7540 C   0  0  0  0  0  0  0  0  0  0  0  0
    0.3530   16.1590   -4.6150 C   0  0  0  0  0  0  0  0  0  0  0  0
    0.4060   13.9250   -4.3330 C   0  0  0  0  0  0  0  0  0  0  0  0
   -0.0150   12.4920   -4.1250 C   0  0  2  0  0  0  0  0  0  0  0  0
    1.5760   15.8190   -4.8080 N   0  0  0  0  0  0  0  0  0  0  0  0
    1.5940   14.4500   -4.6480 C   0  0  0  0  0  0  0  0  0  0  0  0
    0.2790   11.9400   -2.6930 C   0  0  0  0  0  0  0  0  0  0  0  0
    0.4970   11.6510   -5.1890 O   0  0  0  0  0  0  0  0  0  0  0  0
    0.4810   12.5560   -1.6480 O   0  0  0  0  0  0  0  0  0  0  0  0
    0.2830   10.5770   -2.6160 O   0  0  0  0  0  0  0  0  0  0  0  0
   -0.5240   10.8550   -5.6590 C   0  0  0  0  0  0  0  0  0  0  0  0
   -0.3030    9.9100   -6.6650 C   0  0  0  0  0  0  0  0  0  0  0  0
   -1.7940   11.0050   -5.1060 C   0  0  0  0  0  0  0  0  0  0  0  0
   -1.3630    9.1150   -7.1040 C   0  0  0  0  0  0  0  0  0  0  0  0
   -2.8470   10.2130   -5.5480 C   0  0  0  0  0  0  0  0  0  0  0  0
   -2.6320    9.2660   -6.5460 C   0  0  0  0  0  0  0  0  0  0  0  0
  1  2  1  0
  2  3  1  0
  3  4  2  0
  3  5  1  0
  6  4  1  6
  5  7  2  0
  6  8  1  0
  7  8  1  0
  6  9  1  0
  9 10  1  0
  8 11  2  0
  9 12  2  0
 11 12  1  0
 10 13  1  0
 10 14  1  6
 13 15  2  0
 13 16  1  0
 14 17  1  0
 17 18  2  0
 17 19  1  0
 18 20  1  0
 19 21  2  0
 20 22  2  0
 21 22  1  0
M  END
