mac-x0564-mac-x0546
     RDKit          3D

 28 32  0  0  0  0  0  0  0  0999 V2000
   -0.0930   12.4700   -1.3810 N   0  0  0  0  0  0  0  0  0  0  0  0
    0.2790   11.7590   -2.3930 C   0  0  0  0  0  0  0  0  0  0  0  0
    0.2140   12.0920   -3.9080 C   0  0  0  0  0  0  0  0  0  0  0  0
   -0.7120   13.4990   -1.9830 C   0  0  0  0  0  0  0  0  0  0  0  0
    0.7590   10.5480   -2.1170 O   0  0  0  0  0  0  0  0  0  0  0  0
   -1.9660   13.8220   -1.6070 C   0  0  0  0  0  0  0  0  0  0  0  0
   -0.1090   14.1330   -2.9670 N   0  0  0  0  0  0  0  0  0  0  0  0
   -2.6330   14.7740   -2.3060 C   0  0  0  0  0  0  0  0  0  0  0  0
   -0.8310   15.0670   -3.5870 C   0  0  0  0  0  0  0  0  0  0  0  0
   -2.7170   13.3130   -0.5990 O   0  0  0  0  0  0  0  0  0  0  0  0
    0.6060   13.5260   -4.2640 C   0  0  0  0  0  0  0  0  0  0  0  0
   -2.0920   15.4290   -3.3390 N   0  0  0  0  0  0  0  0  0  0  0  0
   -3.9050   13.9660   -0.6690 C   0  0  0  0  0  0  0  0  0  0  0  0
   -3.8940   14.8540   -1.7150 C   0  0  0  0  0  0  0  0  0  0  0  0
   -0.1170   14.4440   -5.2350 C   0  0  1  0  0  0  0  0  0  0  0  0
    1.6600   14.2170   -3.7730 C   0  0  0  0  0  0  0  0  0  0  0  0
   -5.0210   15.5860   -1.9610 C   0  0  0  0  0  0  0  0  0  0  0  0
   -5.0010   13.7880    0.1720 C   0  0  0  0  0  0  0  0  0  0  0  0
   -1.5790   14.7860   -5.1930 C   0  0  0  0  0  0  0  0  0  0  0  0
    0.7040   15.6970   -4.9450 C   0  0  0  0  0  0  0  0  0  0  0  0
    1.7360   15.5280   -4.1800 N   0  0  0  0  0  0  0  0  0  0  0  0
   -6.1460   15.4570   -1.1660 C   0  0  0  0  0  0  0  0  0  0  0  0
   -6.1360   14.5650   -0.1020 C   0  0  0  0  0  0  0  0  0  0  0  0
   -2.0070   16.0580   -5.4440 C   0  0  0  0  0  0  0  0  0  0  0  0
    0.2910   17.0020   -5.5240 C   0  0  0  0  0  0  0  0  0  0  0  0
   -3.3120   16.4560   -5.4760 O   0  0  0  0  0  0  0  0  0  0  0  0
   -1.0460   17.1260   -5.7330 C   0  0  0  0  0  0  0  0  0  0  0  0
   -4.2240   15.4690   -5.9670 C   0  0  0  0  0  0  0  0  0  0  0  0
  1  2  2  3
  2  3  1  0
  1  4  1  0
  2  5  1  0
  4  6  1  0
  4  7  2  0
  6  8  2  0
  7  9  1  0
  6 10  1  0
  3 11  1  0
  8 12  1  0
  9 12  2  0
 10 13  1  0
  8 14  1  0
 13 14  2  0
 11 15  1  0
 11 16  2  0
 14 17  1  0
 13 18  1  0
 15 19  1  1
 15 20  1  0
 16 21  1  0
 20 21  2  0
 17 22  2  0
 18 23  2  0
 22 23  1  0
 19 24  2  0
 20 25  1  0
 24 26  1  0
 24 27  1  0
 25 27  2  0
 26 28  1  0
M  END
