mac-x0584-diamond-x1012_0_A
     RDKit          3D

 24 27  0  0  0  0  0  0  0  0999 V2000
   -0.5490   18.2640   -4.8310 N   0  0  0  0  0  0  0  0  0  0  0  0
   -1.4420   17.2390   -4.7900 C   0  0  0  0  0  0  0  0  0  0  0  0
   -2.4560   17.2620   -5.4690 O   0  0  0  0  0  0  0  0  0  0  0  0
   -1.0730   16.1460   -3.8290 C   0  0  2  0  0  0  0  0  0  0  0  0
   -0.0520   15.0860   -4.2720 C   0  0  0  0  0  0  0  0  0  0  0  0
   -2.2430   15.2860   -3.4360 C   0  0  0  0  0  0  0  0  0  0  0  0
   -0.3430   13.9040   -3.2640 C   0  0  2  0  0  0  0  0  0  0  0  0
   -1.5340   14.3940   -2.5270 N   0  0  0  0  0  0  0  0  0  0  0  0
    0.8170   13.4600   -2.3460 C   0  0  0  0  0  0  0  0  0  0  0  0
   -0.5340   12.6220   -4.0210 C   0  0  0  0  0  0  0  0  0  0  0  0
   -1.5630   14.6340   -1.1690 C   0  0  0  0  0  0  0  0  0  0  0  0
    0.8120   12.1120   -2.1380 O   0  0  0  0  0  0  0  0  0  0  0  0
    1.6740   14.1240   -1.8160 O   0  0  0  0  0  0  0  0  0  0  0  0
    0.7590   11.8100   -4.2230 C   0  0  0  0  0  0  0  0  0  0  0  0
   -0.7590   12.5600   -5.5300 C   0  0  0  0  0  0  0  0  0  0  0  0
   -0.4420   14.5380   -0.3720 N   0  0  0  0  0  0  0  0  0  0  0  0
   -2.6790   14.9690   -0.5330 C   0  0  0  0  0  0  0  0  0  0  0  0
    0.2640   11.4290   -5.6100 C   0  0  0  0  0  0  0  0  0  0  0  0
   -0.4900   14.7260    0.9760 C   0  0  0  0  0  0  0  0  0  0  0  0
   -2.6630   15.1820    0.9280 C   0  0  0  0  0  0  0  0  0  0  0  0
   -4.0340   15.1970   -0.8890 C   0  0  0  0  0  0  0  0  0  0  0  0
   -1.5320   15.0330    1.6650 N   0  0  0  0  0  0  0  0  0  0  0  0
   -3.8310   15.5080    1.3830 N   0  0  0  0  0  0  0  0  0  0  0  0
   -4.6390   15.4970    0.2580 C   0  0  0  0  0  0  0  0  0  0  0  0
  1  2  1  0
  2  3  2  0
  4  2  1  6
  4  5  1  0
  4  6  1  0
  5  7  1  0
  6  8  1  0
  7  8  1  0
  7  9  1  1
  7 10  1  0
  8 11  1  0
  9 12  1  0
  9 13  2  0
 10 14  1  0
 10 15  1  0
 11 16  1  0
 11 17  2  0
 14 18  1  0
 15 18  1  0
 16 19  1  0
 17 20  1  0
 17 21  1  0
 19 22  2  0
 20 22  1  0
 20 23  2  0
 21 24  2  0
 23 24  1  0
M  END
