mac-x0509-mac-x0565
     RDKit          3D

 25 28  0  0  0  0  0  0  0  0999 V2000
   -2.2490    8.0300   -5.7760 O   0  0  0  0  0  0  0  0  0  0  0  0
   -1.3360    8.5160   -6.4250 C   0  0  0  0  0  0  0  0  0  0  0  0
   -1.2710    9.9420   -7.0290 C   0  0  1  0  0  0  0  0  0  0  0  0
   -0.1440    7.8870   -6.7640 N   0  0  0  0  0  0  0  0  0  0  0  0
   -0.7530   10.9690   -5.9870 C   0  0  0  0  0  0  0  0  0  0  0  0
   -0.2750    9.6950   -8.1350 C   0  0  0  0  0  0  0  0  0  0  0  0
    0.3640    8.4720   -7.9130 C   0  0  0  0  0  0  0  0  0  0  0  0
   -1.4300   12.3710   -5.9370 C   0  0  0  0  0  0  0  0  0  0  0  0
    0.0570   10.4670   -9.2340 C   0  0  0  0  0  0  0  0  0  0  0  0
    1.3390    7.9810   -8.7490 C   0  0  0  0  0  0  0  0  0  0  0  0
   -1.6960   12.8230   -4.4830 C   0  0  0  0  0  0  0  0  0  0  0  0
    1.0430    9.9880  -10.0970 C   0  0  0  0  0  0  0  0  0  0  0  0
    1.6820    8.7570   -9.8590 C   0  0  0  0  0  0  0  0  0  0  0  0
   -1.9090   14.2640   -4.2400 N   0  0  0  0  0  0  0  0  0  0  0  0
   -3.0430   14.5170   -3.4530 C   0  0  0  0  0  0  0  0  0  0  0  0
   -0.9050   14.8660   -3.3520 C   0  0  0  0  0  0  0  0  0  0  0  0
   -2.6870   14.7120   -2.1240 C   0  0  0  0  0  0  0  0  0  0  0  0
   -4.3770   14.5730   -3.8140 C   0  0  0  0  0  0  0  0  0  0  0  0
   -1.3260   14.6470   -1.9770 O   0  0  0  0  0  0  0  0  0  0  0  0
   -3.6060   14.9380   -1.1110 C   0  0  0  0  0  0  0  0  0  0  0  0
   -5.3400   14.8010   -2.8190 C   0  0  0  0  0  0  0  0  0  0  0  0
   -4.9570   14.9690   -1.4750 C   0  0  0  0  0  0  0  0  0  0  0  0
   -5.9810   15.1710   -0.4270 C   0  0  0  0  0  0  0  0  0  0  0  0
   -5.4450   15.3050    0.8040 O   0  0  0  0  0  0  0  0  0  0  0  0
   -7.1800   15.1880   -0.6490 O   0  0  0  0  0  0  0  0  0  0  0  0
  1  2  2  0
  2  3  1  0
  2  4  1  0
  3  5  1  1
  3  6  1  0
  4  7  1  0
  6  7  2  0
  5  8  1  0
  6  9  1  0
  7 10  1  0
  8 11  1  0
  9 12  2  0
 10 13  2  0
 12 13  1  0
 11 14  1  0
 14 15  1  0
 14 16  1  0
 15 17  2  0
 15 18  1  0
 16 19  1  0
 17 19  1  0
 17 20  1  0
 18 21  2  0
 20 22  2  0
 21 22  1  0
 22 23  1  0
 23 24  1  0
 23 25  2  0
M  END
