mac-x0411-mac-x0567
     RDKit          3D

 25 27  0  0  0  0  0  0  0  0999 V2000
    0.6050    8.7380   -7.8820 Cl  0  0  0  0  0  0  0  0  0  0  0  0
   -0.6460    9.4220   -6.9080 C   0  0  0  0  0  0  0  0  0  0  0  0
   -0.5360   10.6810   -6.3010 C   0  0  0  0  0  0  0  0  0  0  0  0
   -1.8010    8.6540   -6.7500 C   0  0  0  0  0  0  0  0  0  0  0  0
    0.5990   11.4370   -6.4560 O   0  0  0  0  0  0  0  0  0  0  0  0
   -1.6230   11.1560   -5.5310 C   0  0  0  0  0  0  0  0  0  0  0  0
   -2.8610    9.1280   -5.9900 C   0  0  0  0  0  0  0  0  0  0  0  0
   -1.6200   12.6940   -4.7400 Cl  0  0  0  0  0  0  0  0  0  0  0  0
    0.9490   12.3890   -5.4660 C   0  0  0  0  0  0  0  0  0  0  0  0
   -2.7760   10.3760   -5.3810 C   0  0  0  0  0  0  0  0  0  0  0  0
    0.9290   12.1060   -3.9590 C   0  0  0  0  0  0  0  0  0  0  0  0
    1.3420   13.2380   -3.3380 O   0  0  0  0  0  0  0  0  0  0  0  0
    0.6100   11.0710   -3.3850 O   0  0  0  0  0  0  0  0  0  0  0  0
    1.4950   13.1380   -1.9340 C   0  0  0  0  0  0  0  0  0  0  0  0
    0.8490   14.3150   -1.2090 C   0  0  0  0  0  0  0  0  0  0  0  0
    0.2310   13.8620    0.0320 N   0  0  0  0  0  0  0  0  0  0  0  0
   -1.0110   14.2980    0.3950 C   0  0  0  0  0  0  0  0  0  0  0  0
   -1.4120   14.4620    1.6890 N   0  0  0  0  0  0  0  0  0  0  0  0
   -2.1220   14.6680   -0.3330 C   0  0  0  0  0  0  0  0  0  0  0  0
   -2.6740   14.9040    1.8470 N   0  0  0  0  0  0  0  0  0  0  0  0
   -3.1470   15.0470    0.6060 C   0  0  0  0  0  0  0  0  0  0  0  0
   -2.2420   14.6790   -1.7240 C   0  0  0  0  0  0  0  0  0  0  0  0
   -4.4060   15.4820    0.1680 C   0  0  0  0  0  0  0  0  0  0  0  0
   -3.5180   15.1230   -2.1360 C   0  0  0  0  0  0  0  0  0  0  0  0
   -4.5560   15.5080   -1.2330 C   0  0  0  0  0  0  0  0  0  0  0  0
  1  2  1  0
  2  3  2  0
  2  4  1  0
  3  5  1  0
  3  6  1  0
  4  7  2  0
  6  8  1  0
  5  9  1  0
  6 10  2  0
  7 10  1  0
  9 11  1  0
 11 12  1  0
 11 13  2  0
 12 14  1  0
 14 15  1  0
 15 16  1  0
 16 17  1  0
 17 18  1  0
 17 19  2  0
 18 20  1  0
 19 21  1  0
 20 21  2  0
 19 22  1  0
 21 23  1  0
 22 24  2  0
 23 25  2  0
 24 25  1  0
M  END
