mac-x0302-mac-x0224
     RDKit          3D

 22 24  0  0  0  0  0  0  0  0999 V2000
    0.4020   14.2320   -1.7750 O   0  0  0  0  0  0  0  0  0  0  0  0
    0.1280   14.0690   -3.0970 C   0  0  0  0  0  0  0  0  0  0  0  0
    0.8100   13.3520   -3.7870 O   0  0  0  0  0  0  0  0  0  0  0  0
   -0.8040   14.7270   -1.2910 C   0  0  0  0  0  0  0  0  0  0  0  0
   -1.1160   14.8960   -3.4950 C   0  0  2  0  0  0  0  0  0  0  0  0
   -1.1400   14.7860    0.0210 C   0  0  0  0  0  0  0  0  0  0  0  0
   -1.6810   15.1620   -2.2380 C   0  0  0  0  0  0  0  0  0  0  0  0
   -2.2570   14.1090   -3.8690 N   0  0  0  0  0  0  0  0  0  0  0  0
   -2.3930   15.3040    0.3340 C   0  0  0  0  0  0  0  0  0  0  0  0
   -2.9080   15.7130   -1.9630 C   0  0  0  0  0  0  0  0  0  0  0  0
   -3.5090   14.6120   -3.4550 C   0  0  0  0  0  0  0  0  0  0  0  0
   -2.8980   15.3410    2.0070 S   0  0  0  0  0  0  0  0  0  0  0  0
   -3.2750   15.7830   -0.6440 C   0  0  0  0  0  0  0  0  0  0  0  0
   -4.1610   15.2510   -4.2550 O   0  0  0  0  0  0  0  0  0  0  0  0
   -4.6760   15.4940    1.8660 C   0  0  0  0  0  0  0  0  0  0  0  0
   -4.1160   14.4340   -2.0490 C   0  0  0  0  0  0  0  0  0  0  0  0
   -5.4300   14.9190   -1.8710 C   0  0  0  0  0  0  0  0  0  0  0  0
   -3.4820   13.8320   -0.9290 C   0  0  0  0  0  0  0  0  0  0  0  0
   -6.0820   14.8080   -0.6410 C   0  0  0  0  0  0  0  0  0  0  0  0
   -4.1580   13.7330    0.3080 C   0  0  0  0  0  0  0  0  0  0  0  0
   -7.3530   15.2920   -0.5460 O   0  0  0  0  0  0  0  0  0  0  0  0
   -5.4580   14.2200    0.4490 C   0  0  0  0  0  0  0  0  0  0  0  0
  1  2  1  0
  2  3  2  0
  1  4  1  0
  2  5  1  0
  4  6  1  0
  4  7  2  0
  5  7  1  0
  5  8  1  6
  6  9  2  0
  7 10  1  0
  8 11  1  0
  9 12  1  0
  9 13  1  0
 10 13  2  0
 11 14  2  0
 12 15  1  0
 11 16  1  0
 16 17  2  0
 16 18  1  0
 17 19  1  0
 18 20  2  0
 19 21  1  0
 19 22  2  0
 20 22  1  0
M  END
