mac-x0193-mac-x0319
     RDKit          3D

 21 22  0  0  0  0  0  0  0  0999 V2000
    0.5350   10.6240   -2.7920 O   0  0  0  0  0  0  0  0  0  0  0  0
    0.9350   11.7980   -3.3220 C   0  0  0  0  0  0  0  0  0  0  0  0
    1.9170   12.3830   -2.8980 O   0  0  0  0  0  0  0  0  0  0  0  0
   -0.0020   12.2510   -4.4280 C   0  0  2  0  0  0  0  0  0  0  0  0
   -0.0180   11.4350   -5.6640 N   0  0  0  0  0  0  0  0  0  0  0  0
   -0.1400   13.7520   -4.5150 C   0  0  0  0  0  0  0  0  0  0  0  0
    0.8150   11.4570   -6.7580 C   0  0  0  0  0  0  0  0  0  0  0  0
    0.8670   14.7140   -4.2490 C   0  0  0  0  0  0  0  0  0  0  0  0
   -1.4120   14.1940   -4.8690 C   0  0  0  0  0  0  0  0  0  0  0  0
    1.9220   11.9610   -6.7770 O   0  0  0  0  0  0  0  0  0  0  0  0
    0.1830   10.8040   -7.8140 N   0  0  0  0  0  0  0  0  0  0  0  0
    0.5350   16.0730   -4.3450 C   0  0  0  0  0  0  0  0  0  0  0  0
   -1.7130   15.5420   -4.9620 C   0  0  0  0  0  0  0  0  0  0  0  0
    1.4680   17.0110   -4.0790 O   0  0  0  0  0  0  0  0  0  0  0  0
    0.8510   10.2220   -8.9850 C   0  0  0  0  0  0  0  0  0  0  0  0
   -0.7370   16.4870   -4.6980 C   0  0  0  0  0  0  0  0  0  0  0  0
    1.3510    8.8080   -8.6930 C   0  0  0  0  0  0  0  0  0  0  0  0
   -0.0540   10.1830  -10.2190 C   0  0  0  0  0  0  0  0  0  0  0  0
    2.0680    8.1470   -9.8770 C   0  0  0  0  0  0  0  0  0  0  0  0
    0.6600    9.5660  -11.4270 C   0  0  0  0  0  0  0  0  0  0  0  0
    1.2040    8.1700  -11.1350 C   0  0  0  0  0  0  0  0  0  0  0  0
  1  2  1  0
  2  3  2  0
  2  4  1  0
  4  5  1  6
  4  6  1  0
  5  7  1  0
  6  8  2  0
  6  9  1  0
  7 10  2  0
  7 11  1  0
  8 12  1  0
  9 13  2  0
 12 14  1  0
 11 15  1  0
 12 16  2  0
 13 16  1  0
 15 17  1  0
 15 18  1  0
 17 19  1  0
 18 20  1  0
 19 21  1  0
 20 21  1  0
M  END
