mac-x0188-mac-x0132
     RDKit          3D

 21 23  0  0  0  0  0  0  0  0999 V2000
    1.5270   13.4600   -5.0830 C   0  0  0  0  0  0  0  0  0  0  0  0
    0.1550   13.6400   -4.5800 C   0  0  0  0  0  0  0  0  0  0  0  0
   -0.8430   13.6530   -5.5050 O   0  0  0  0  0  0  0  0  0  0  0  0
   -0.3780   13.8060   -3.3300 C   0  0  0  0  0  0  0  0  0  0  0  0
    0.3390   13.8570   -2.0860 C   0  0  0  0  0  0  0  0  0  0  0  0
   -2.0590   13.8200   -4.8720 N   0  0  0  0  0  0  0  0  0  0  0  0
   -1.7800   13.9050   -3.5650 C   0  0  0  0  0  0  0  0  0  0  0  0
    0.7960   14.8850   -1.6090 O   0  0  0  0  0  0  0  0  0  0  0  0
    0.4810   12.6450   -1.4830 O   0  0  0  0  0  0  0  0  0  0  0  0
   -2.8870   14.0650   -2.5720 C   0  0  2  0  0  0  0  0  0  0  0  0
   -3.6770   15.3580   -2.5720 C   0  0  0  0  0  0  0  0  0  0  0  0
   -2.4460   13.7320   -1.1800 C   0  0  0  0  0  0  0  0  0  0  0  0
   -4.4850   15.6240   -1.5260 C   0  0  0  0  0  0  0  0  0  0  0  0
   -3.2380   13.9910   -0.1570 C   0  0  0  0  0  0  0  0  0  0  0  0
   -4.5940   14.6420   -0.3700 C   0  0  1  0  0  0  0  0  0  0  0  0
   -5.0720   15.2600    0.9500 C   0  0  2  0  0  0  0  0  0  0  0  0
   -5.7270   13.6610   -0.7640 C   0  0  0  0  0  0  0  0  0  0  0  0
   -4.1280   15.1640    2.0490 N   0  0  0  0  0  0  0  0  0  0  0  0
   -7.0650   14.2760   -0.7260 N   0  0  0  0  0  0  0  0  0  0  0  0
   -6.3240   14.7390    1.5080 N   0  0  0  0  0  0  0  0  0  0  0  0
   -7.4700   14.5370    0.6320 C   0  0  0  0  0  0  0  0  0  0  0  0
  1  2  1  0
  2  3  1  0
  2  4  2  0
  4  5  1  0
  3  6  1  0
  4  7  1  0
  6  7  2  0
  5  8  2  0
  5  9  1  0
 10  7  1  6
 10 11  1  0
 10 12  1  0
 11 13  2  0
 12 14  2  0
 15 13  1  6
 14 15  1  0
 15 16  1  0
 15 17  1  0
 16 18  1  1
 17 19  1  0
 16 20  1  0
 19 21  1  0
 20 21  1  0
M  END
