mac-x0337-mac-x0345
     RDKit          3D

 20 21  0  0  0  0  0  0  0  0999 V2000
   -6.0400    9.5150   -2.0040 C   0  0  0  0  0  0  0  0  0  0  0  0
   -5.2180   10.7420   -1.7270 C   0  0  0  0  0  0  0  0  0  0  0  0
   -5.5870   11.6510   -0.7260 C   0  0  0  0  0  0  0  0  0  0  0  0
   -4.0620   10.9830   -2.4720 C   0  0  0  0  0  0  0  0  0  0  0  0
   -3.2820   12.1110   -2.2300 C   0  0  0  0  0  0  0  0  0  0  0  0
   -4.8040   12.7900   -0.4740 C   0  0  0  0  0  0  0  0  0  0  0  0
   -3.6420   13.0180   -1.2370 C   0  0  0  0  0  0  0  0  0  0  0  0
   -2.5660   14.4430   -1.0050 S   0  0  0  0  0  0  0  0  0  0  0  0
   -2.1700   14.9040   -2.3150 O   0  0  0  0  0  0  0  0  0  0  0  0
   -1.6270   14.1570    0.0400 O   0  0  0  0  0  0  0  0  0  0  0  0
   -3.5220   15.6340   -0.3760 N   0  0  0  0  0  0  0  0  0  0  0  0
   -4.7710   15.3470   -0.7500 C   0  0  0  0  0  0  0  0  0  0  0  0
   -5.6470   15.1130    0.2160 C   0  0  0  0  0  0  0  0  0  0  0  0
   -5.0570   15.2920   -2.0680 C   0  0  0  0  0  0  0  0  0  0  0  0
   -4.8990   15.2540    1.9270 Br  0  0  0  0  0  0  0  0  0  0  0  0
   -6.9350   14.8040   -0.1490 C   0  0  0  0  0  0  0  0  0  0  0  0
   -6.3250   14.9770   -2.4030 C   0  0  0  0  0  0  0  0  0  0  0  0
   -8.0260   14.5230    0.8430 C   0  0  0  0  0  0  0  0  0  0  0  0
   -6.6500   14.8890   -3.7450 N   0  0  0  0  0  0  0  0  0  0  0  0
   -7.2750   14.7380   -1.4700 N   0  0  0  0  0  0  0  0  0  0  0  0
  1  2  1  0
  2  3  2  0
  2  4  1  0
  4  5  2  0
  3  6  1  0
  5  7  1  0
  6  7  2  0
  7  8  1  0
  8  9  2  0
  8 10  2  0
  8 11  1  0
 11 12  1  0
 12 13  2  0
 12 14  1  0
 13 15  1  0
 13 16  1  0
 14 17  2  0
 16 18  1  0
 17 19  1  0
 16 20  2  0
 17 20  1  0
M  END
