mac-x0326-mac-x0527
     RDKit          3D

 23 25  0  0  0  0  0  0  0  0999 V2000
   -6.3530   15.6250   -1.2160 Cl  0  0  0  0  0  0  0  0  0  0  0  0
   -4.6640   15.3100   -1.1690 C   0  0  0  0  0  0  0  0  0  0  0  0
   -3.9580   15.1390   -2.3430 C   0  0  0  0  0  0  0  0  0  0  0  0
   -3.9990   15.2170    0.0610 C   0  0  0  0  0  0  0  0  0  0  0  0
   -2.6050   14.8740   -2.2950 C   0  0  0  0  0  0  0  0  0  0  0  0
   -2.6180   14.9470    0.1240 C   0  0  0  0  0  0  0  0  0  0  0  0
   -4.5460   15.2180   -3.5780 O   0  0  0  0  0  0  0  0  0  0  0  0
   -1.8780   14.6940   -3.4130 N   0  0  0  0  0  0  0  0  0  0  0  0
   -1.9280   14.7740   -1.0890 C   0  0  0  0  0  0  0  0  0  0  0  0
   -0.6420   14.4390   -3.1160 C   0  0  0  0  0  0  0  0  0  0  0  0
   -0.2640   14.4330   -1.4230 S   0  0  0  0  0  0  0  0  0  0  0  0
    0.2530   14.1670   -4.3250 C   0  0  2  0  0  0  0  0  0  0  0  0
    1.6660   13.8410   -3.8850 C   0  0  0  0  0  0  0  0  0  0  0  0
    0.0850   15.4130   -5.0830 N   0  0  0  0  0  0  0  0  0  0  0  0
   -0.4150   12.9430   -4.9640 C   0  0  0  0  0  0  0  0  0  0  0  0
    1.6280   12.6300   -3.0170 C   0  0  0  0  0  0  0  0  0  0  0  0
    0.0790   12.1500   -6.0140 C   0  0  0  0  0  0  0  0  0  0  0  0
   -1.6490   12.5870   -4.4020 C   0  0  0  0  0  0  0  0  0  0  0  0
    0.8160   11.6370   -3.4450 O   0  0  0  0  0  0  0  0  0  0  0  0
    2.2400   12.5030   -2.0020 O   0  0  0  0  0  0  0  0  0  0  0  0
   -2.3740   11.5020   -4.8390 C   0  0  0  0  0  0  0  0  0  0  0  0
   -0.6600   11.0440   -6.4590 C   0  0  0  0  0  0  0  0  0  0  0  0
   -1.8820   10.7250   -5.8680 C   0  0  0  0  0  0  0  0  0  0  0  0
  1  2  1  0
  2  3  2  0
  2  4  1  0
  3  5  1  0
  4  6  2  0
  3  7  1  0
  5  8  1  0
  5  9  2  0
  6  9  1  0
  8 10  2  0
  9 11  1  0
 10 11  1  0
 10 12  1  0
 12 13  1  0
 12 14  1  6
 12 15  1  0
 13 16  1  0
 15 17  2  0
 15 18  1  0
 16 19  1  0
 16 20  2  0
 18 21  2  0
 17 22  1  0
 21 23  1  0
 22 23  2  0
M  END
