mac-x0321-mac-x0402
     RDKit          3D

 14 15  0  0  0  0  0  0  0  0999 V2000
   -3.9420   16.2210    1.0370 Cl  0  0  0  0  0  0  0  0  0  0  0  0
   -4.1730   14.7000    0.1880 C   0  0  2  0  0  0  0  0  0  0  0  0
   -2.9680   14.4090   -0.6380 C   0  0  0  0  0  0  0  0  0  0  0  0
   -5.4710   14.6070   -0.6040 C   0  0  2  0  0  0  0  0  0  0  0  0
   -4.5930   13.6110    1.5270 S   0  0  0  0  0  0  0  0  0  0  0  0
   -2.9950   14.7820   -1.9380 C   0  0  0  0  0  0  0  0  0  0  0  0
   -5.3750   15.3840   -1.8790 C   0  0  0  0  0  0  0  0  0  0  0  0
   -6.1240   14.4860    1.4870 C   0  0  0  0  0  0  0  0  0  0  0  0
   -6.5280   14.9470    0.3400 N   0  0  0  0  0  0  0  0  0  0  0  0
   -1.8200   14.5310   -2.8170 C   0  0  0  0  0  0  0  0  0  0  0  0
   -6.8090   14.6390    2.6370 N   0  0  0  0  0  0  0  0  0  0  0  0
   -4.1720   15.4400   -2.4940 C   0  0  0  0  0  0  0  0  0  0  0  0
   -0.6530   14.5160   -2.1430 O   0  0  0  0  0  0  0  0  0  0  0  0
   -1.9050   14.3630   -4.0220 O   0  0  0  0  0  0  0  0  0  0  0  0
  2  1  1  1
  2  3  1  0
  2  4  1  0
  2  5  1  0
  3  6  2  0
  4  7  1  6
  5  8  1  0
  4  9  1  0
  8  9  2  0
  6 10  1  0
  8 11  1  0
  6 12  1  0
  7 12  2  0
 10 13  1  0
 10 14  2  0
M  END
