mac-x0283-mac-x1494
     RDKit          3D

 16 18  0  0  0  0  0  0  0  0999 V2000
   -7.0020   13.5160    2.2940 N   0  0  0  0  0  0  0  0  0  0  0  0
   -6.6990   14.5750    1.4030 C   0  0  2  0  0  0  0  0  0  0  0  0
   -7.7550   14.6090    0.3790 N   0  0  0  0  0  0  0  0  0  0  0  0
   -5.4380   14.4250    0.5960 C   0  0  1  0  0  0  0  0  0  0  0  0
   -7.0920   14.7830   -0.9300 O   0  0  0  0  0  0  0  0  0  0  0  0
   -5.7890   15.2330   -0.6080 C   0  0  2  0  0  0  0  0  0  0  0  0
   -4.1690   15.0550    1.0490 C   0  0  0  0  0  0  0  0  0  0  0  0
   -4.0920   15.8170    1.9980 O   0  0  0  0  0  0  0  0  0  0  0  0
   -4.6890   15.2480   -1.6610 C   0  0  1  0  0  0  0  0  0  0  0  0
   -2.9790   14.6560    0.1950 C   0  0  0  0  0  0  0  0  0  0  0  0
   -3.4670   14.3640   -1.2390 C   0  0  2  0  0  0  0  0  0  0  0  0
   -5.1280   14.9910   -3.0500 C   0  0  0  0  0  0  0  0  0  0  0  0
   -2.3430   14.4590   -2.2700 C   0  0  0  0  0  0  0  0  0  0  0  0
   -4.2900   14.5250   -3.9690 C   0  0  0  0  0  0  0  0  0  0  0  0
   -2.8460   14.2040   -3.7000 C   0  0  1  0  0  0  0  0  0  0  0  0
   -1.8260   15.0880   -4.8510 Cl  0  0  0  0  0  0  0  0  0  0  0  0
  2  1  1  1
  2  3  1  0
  2  4  1  0
  3  5  1  0
  4  6  1  0
  6  5  1  6
  4  7  1  1
  7  8  2  0
  6  9  1  0
  7 10  1  0
  9 11  1  0
 11 10  1  1
  9 12  1  6
 11 13  1  0
 12 14  2  0
 13 15  1  0
 14 15  1  0
 15 16  1  6
M  END
