mac-x0137-diamond-x0685_0_A
     RDKit          3D

 21 23  0  0  0  0  0  0  0  0999 V2000
   -2.8190   12.8110   -3.7030 F   0  0  0  0  0  0  0  0  0  0  0  0
   -1.8230   13.5030   -4.3160 C   0  0  2  0  0  0  0  0  0  0  0  0
   -0.6620   12.5380   -4.5680 C   0  0  0  0  0  0  0  0  0  0  0  0
   -1.4360   14.7180   -3.4430 C   0  0  0  0  0  0  0  0  0  0  0  0
   -0.5710   14.4030   -2.2880 N   0  0  0  0  0  0  0  0  0  0  0  0
    0.0560   12.1780   -3.2770 C   0  0  0  0  0  0  0  0  0  0  0  0
    0.5200   13.4330   -2.5390 C   0  0  0  0  0  0  0  0  0  0  0  0
   -1.0600   14.4900   -0.9560 C   0  0  0  0  0  0  0  0  0  0  0  0
   -0.1460   14.3110    0.0130 N   0  0  0  0  0  0  0  0  0  0  0  0
   -2.4140   14.7450   -0.5230 C   0  0  0  0  0  0  0  0  0  0  0  0
   -0.5100   14.3600    1.3060 C   0  0  0  0  0  0  0  0  0  0  0  0
   -2.6630   14.7630    0.8620 C   0  0  0  0  0  0  0  0  0  0  0  0
   -3.6690   15.0020   -1.1280 C   0  0  0  0  0  0  0  0  0  0  0  0
   -3.9080   15.0840   -2.5230 C   0  0  0  0  0  0  0  0  0  0  0  0
   -1.7330   14.5730    1.8160 N   0  0  0  0  0  0  0  0  0  0  0  0
   -4.0340   15.0040    1.0780 N   0  0  0  0  0  0  0  0  0  0  0  0
   -4.6360   15.1600   -0.1420 C   0  0  0  0  0  0  0  0  0  0  0  0
   -4.7590   15.0850    2.3620 N   0  0  0  0  0  0  0  0  0  0  0  0
   -4.0440   15.1360   -3.6710 N   0  0  0  0  0  0  0  0  0  0  0  0
   -6.2270   14.7740    2.3050 C   0  0  0  0  0  0  0  0  0  0  0  0
   -6.6630   13.3840    2.7710 C   0  0  0  0  0  0  0  0  0  0  0  0
  2  1  1  1
  2  3  1  0
  2  4  1  0
  4  5  1  0
  3  6  1  0
  5  7  1  0
  6  7  1  0
  5  8  1  0
  8  9  2  0
  8 10  1  0
  9 11  1  0
 10 12  2  0
 10 13  1  0
 13 14  1  0
 11 15  2  0
 12 15  1  0
 12 16  1  0
 13 17  2  0
 16 17  1  0
 16 18  1  0
 14 19  3  0
 18 20  1  0
 20 21  1  0
M  END
