mac-x0412-mac-x0132
     RDKit          3D

 11 12  0  0  0  0  0  0  0  0999 V2000
   -7.9660   14.9260   -0.5460 O   0  0  0  0  0  0  0  0  0  0  0  0
   -6.9710   14.7310    0.1430 C   0  0  0  0  0  0  0  0  0  0  0  0
   -7.0660   14.7880    1.5210 N   0  0  0  0  0  0  0  0  0  0  0  0
   -5.5880   14.4270   -0.4940 C   0  0  2  0  0  0  0  0  0  0  0  0
   -4.4370   14.8560    0.4010 C   0  0  0  0  0  0  0  0  0  0  0  0
   -5.9890   14.9780    2.2050 C   0  0  0  0  0  0  0  0  0  0  0  0
   -5.4250   14.9700   -1.8990 C   0  0  0  0  0  0  0  0  0  0  0  0
   -4.6120   15.1270    1.6970 C   0  0  0  0  0  0  0  0  0  0  0  0
   -3.1380   14.9340   -0.2380 C   0  0  0  0  0  0  0  0  0  0  0  0
   -4.2180   15.2900   -2.3840 C   0  0  0  0  0  0  0  0  0  0  0  0
   -3.0430   15.1300   -1.5610 C   0  0  0  0  0  0  0  0  0  0  0  0
  1  2  2  0
  2  3  1  0
  2  4  1  0
  4  5  1  0
  3  6  2  0
  4  7  1  6
  5  8  2  0
  6  8  1  0
  5  9  1  0
  7 10  2  0
  9 11  2  0
 10 11  1  0
M  END
