mac-x0341-mac-x0357
     RDKit          3D

 24 26  0  0  0  0  0  0  0  0999 V2000
   -7.0290   14.6610    2.3790 N   0  0  0  0  0  0  0  0  0  0  0  0
   -6.2050   14.7710    1.3030 C   0  0  0  0  0  0  0  0  0  0  0  0
   -4.9570   15.0090    1.4960 N   0  0  0  0  0  0  0  0  0  0  0  0
   -6.7360   14.6260    0.0510 N   0  0  0  0  0  0  0  0  0  0  0  0
   -6.0350   14.9650   -1.0920 C   0  0  0  0  0  0  0  0  0  0  0  0
   -4.1100   15.0820    0.3940 C   0  0  0  0  0  0  0  0  0  0  0  0
   -6.5840   15.1620   -2.1660 O   0  0  0  0  0  0  0  0  0  0  0  0
   -4.5760   15.0590   -0.9210 C   0  0  0  0  0  0  0  0  0  0  0  0
   -2.7500   15.1670    0.6340 C   0  0  0  0  0  0  0  0  0  0  0  0
   -1.8590   15.2180   -0.4240 C   0  0  0  0  0  0  0  0  0  0  0  0
   -3.6910   15.1120   -2.0080 C   0  0  0  0  0  0  0  0  0  0  0  0
   -2.3120   15.1840   -1.7480 C   0  0  0  0  0  0  0  0  0  0  0  0
   -1.2500   15.2120   -2.8030 C   0  0  0  0  0  0  0  0  0  0  0  0
   -0.1520   14.4330   -2.2180 N   0  0  0  0  0  0  0  0  0  0  0  0
    0.3460   13.3820   -2.7470 C   0  0  0  0  0  0  0  0  0  0  0  0
    1.3240   12.7790   -2.0590 O   0  0  0  0  0  0  0  0  0  0  0  0
    0.0820   12.6570   -3.9900 C   0  0  0  0  0  0  0  0  0  0  0  0
    1.1000   12.5330   -4.9440 C   0  0  0  0  0  0  0  0  0  0  0  0
   -1.1910   12.1010   -4.1920 C   0  0  0  0  0  0  0  0  0  0  0  0
    2.4590   13.1260   -4.7000 C   0  0  0  0  0  0  0  0  0  0  0  0
   -1.4640   11.4090   -5.3690 C   0  0  0  0  0  0  0  0  0  0  0  0
    0.7940   11.8330   -6.1160 C   0  0  0  0  0  0  0  0  0  0  0  0
    1.6930   11.6400   -7.1130 O   0  0  0  0  0  0  0  0  0  0  0  0
   -0.4650   11.2770   -6.3330 C   0  0  0  0  0  0  0  0  0  0  0  0
  1  2  1  0
  2  3  2  0
  2  4  1  0
  4  5  1  0
  3  6  1  0
  5  7  2  0
  5  8  1  0
  6  8  2  0
  6  9  1  0
  9 10  2  0
  8 11  1  0
 10 12  1  0
 11 12  2  0
 12 13  1  0
 13 14  1  0
 14 15  2  3
 15 16  1  0
 15 17  1  0
 17 18  2  0
 17 19  1  0
 18 20  1  0
 19 21  2  0
 18 22  1  0
 22 23  1  0
 21 24  1  0
 22 24  2  0
M  END
