mac-x0123-mac-x0226
     RDKit          3D

 30 34  0  0  0  0  0  0  0  0999 V2000
   -4.2560   15.5510    1.9020 N   0  0  0  0  0  0  0  0  0  0  0  0
   -4.6710   14.4890    0.9940 C   0  0  1  0  0  0  0  0  0  0  0  0
   -6.0920   13.9220    1.2930 C   0  0  2  0  0  0  0  0  0  0  0  0
   -4.4090   14.9300   -0.3800 N   0  0  0  0  0  0  0  0  0  0  0  0
   -5.3370   14.4020   -1.3330 C   0  0  1  0  0  0  0  0  0  0  0  0
   -7.1060   14.0100    0.1040 C   0  0  2  0  0  0  0  0  0  0  0  0
   -6.8380   14.5850    2.4140 C   0  0  0  0  0  0  0  0  0  0  0  0
   -3.2350   14.3150   -0.9980 N   0  0  0  0  0  0  0  0  0  0  0  0
   -1.9730   14.5340   -0.2810 C   0  0  0  0  0  0  0  0  0  0  0  0
   -6.6890   14.7630   -1.0850 N   0  0  0  0  0  0  0  0  0  0  0  0
   -8.4410   14.5090    0.7010 C   0  0  0  0  0  0  0  0  0  0  0  0
   -8.0990   14.8850    2.1010 C   0  0  0  0  0  0  0  0  0  0  0  0
   -4.8120   14.8040   -2.6140 N   0  0  0  0  0  0  0  0  0  0  0  0
   -3.3630   14.7200   -2.3970 C   0  0  0  0  0  0  0  0  0  0  0  0
   -0.6810   14.6090   -1.1130 C   0  0  0  0  0  0  0  0  0  0  0  0
    0.0730   13.2980   -0.9620 C   0  0  0  0  0  0  0  0  0  0  0  0
    0.8150   12.9440   -2.1360 O   0  0  0  0  0  0  0  0  0  0  0  0
    0.5160   11.7380   -2.7030 C   0  0  0  0  0  0  0  0  0  0  0  0
    0.1990   10.7150   -2.0790 O   0  0  0  0  0  0  0  0  0  0  0  0
    0.6310   11.7670   -4.1460 C   0  0  0  0  0  0  0  0  0  0  0  0
    1.4390   12.6030   -4.9460 C   0  0  0  0  0  0  0  0  0  0  0  0
   -0.0220   10.9690   -5.0630 C   0  0  0  0  0  0  0  0  0  0  0  0
    1.3140   12.3470   -6.2480 N   0  0  0  0  0  0  0  0  0  0  0  0
    0.4110   11.3290   -6.3170 N   0  0  0  0  0  0  0  0  0  0  0  0
    0.0220   10.7520   -7.5610 C   0  0  0  0  0  0  0  0  0  0  0  0
   -1.1350    9.9770   -7.6420 C   0  0  0  0  0  0  0  0  0  0  0  0
    0.7770   10.9370   -8.7130 C   0  0  0  0  0  0  0  0  0  0  0  0
   -1.5130    9.4050   -8.8610 C   0  0  0  0  0  0  0  0  0  0  0  0
    0.4090   10.3760   -9.9260 C   0  0  0  0  0  0  0  0  0  0  0  0
   -0.7400    9.6060  -10.0040 C   0  0  0  0  0  0  0  0  0  0  0  0
  2  1  1  1
  2  3  1  0
  2  4  1  0
  4  5  1  0
  3  6  1  0
  3  7  1  1
  4  8  1  0
  8  9  1  0
  5 10  1  1
  6 10  1  0
  6 11  1  1
  7 12  2  0
 11 12  1  0
  5 13  1  0
  8 14  1  0
 13 14  1  0
  9 15  1  0
 15 16  1  0
 16 17  1  0
 17 18  1  0
 18 19  2  0
 18 20  1  0
 20 21  1  0
 20 22  2  0
 21 23  2  0
 22 24  1  0
 23 24  1  0
 24 25  1  0
 25 26  2  0
 25 27  1  0
 26 28  1  0
 27 29  2  0
 28 30  2  0
 29 30  1  0
M  END
