mac-x0213-mac-x0392
     RDKit          3D

 21 23  0  0  0  0  0  0  0  0999 V2000
    0.1400   12.0570   -2.3580 O   0  0  0  0  0  0  0  0  0  0  0  0
   -0.0020   13.2310   -3.0090 C   0  0  0  0  0  0  0  0  0  0  0  0
   -0.8080   14.1890   -2.9430 N   0  0  0  0  0  0  0  0  0  0  0  0
    0.8040   13.5960   -4.1780 C   0  0  0  0  0  0  0  0  0  0  0  0
   -1.9000   14.5180   -2.2650 C   0  0  0  0  0  0  0  0  0  0  0  0
   -0.3970   13.8180   -5.1180 C   0  0  0  0  0  0  0  0  0  0  0  0
    1.5210   14.9650   -4.0660 C   0  0  0  0  0  0  0  0  0  0  0  0
   -2.9020   14.8200   -2.8940 O   0  0  0  0  0  0  0  0  0  0  0  0
   -0.6450   15.3030   -5.0380 C   0  0  0  0  0  0  0  0  0  0  0  0
    0.4510   15.9520   -4.4830 C   0  0  0  0  0  0  0  0  0  0  0  0
   -1.9720   14.5570   -0.8080 C   0  0  0  0  0  0  0  0  0  0  0  0
   -1.7740   16.0160   -5.4520 C   0  0  0  0  0  0  0  0  0  0  0  0
    0.4600   17.3340   -4.3660 C   0  0  0  0  0  0  0  0  0  0  0  0
   -0.9030   14.2770    0.0530 C   0  0  0  0  0  0  0  0  0  0  0  0
   -3.2320   14.9060   -0.3280 C   0  0  0  0  0  0  0  0  0  0  0  0
    0.3950   13.9200   -0.3520 N   0  0  0  0  0  0  0  0  0  0  0  0
   -1.7710   17.3980   -5.3350 C   0  0  0  0  0  0  0  0  0  0  0  0
   -0.6620   18.0510   -4.8040 C   0  0  0  0  0  0  0  0  0  0  0  0
   -3.4100   14.9680    1.0230 C   0  0  0  0  0  0  0  0  0  0  0  0
   -1.2080   14.3720    1.3930 C   0  0  0  0  0  0  0  0  0  0  0  0
   -2.4120   14.7040    1.8910 N   0  0  0  0  0  0  0  0  0  0  0  0
  1  2  1  0
  2  3  2  3
  2  4  1  0
  3  5  1  0
  4  6  1  0
  4  7  1  0
  5  8  2  0
  6  9  1  0
  7 10  1  0
  9 10  2  0
  5 11  1  0
  9 12  1  0
 10 13  1  0
 11 14  2  0
 11 15  1  0
 14 16  1  0
 12 17  2  0
 13 18  2  0
 17 18  1  0
 15 19  2  0
 14 20  1  0
 19 21  1  0
 20 21  2  0
M  END
