mac-x0375-mac-x0305
     RDKit          3D

 22 23  0  0  0  0  0  0  0  0999 V2000
    2.7940   12.1720   -3.5980 O   0  0  0  0  0  0  0  0  0  0  0  0
    1.4570   12.5360   -3.4830 C   0  0  0  0  0  0  0  0  0  0  0  0
    0.8120   11.4520   -2.8130 O   0  0  0  0  0  0  0  0  0  0  0  0
    0.8090   12.8080   -4.8770 C   0  0  0  0  0  0  0  0  0  0  0  0
    1.5380   13.8030   -2.5950 C   0  0  0  0  0  0  0  0  0  0  0  0
    0.7950   11.6300   -5.7350 O   0  0  0  0  0  0  0  0  0  0  0  0
    0.2340   14.3900   -2.3470 N   0  0  0  0  0  0  0  0  0  0  0  0
   -0.3690   14.1580   -1.2480 C   0  0  0  0  0  0  0  0  0  0  0  0
   -0.3890   10.9480   -5.9200 C   0  0  0  0  0  0  0  0  0  0  0  0
    0.2920   13.3210   -0.3700 O   0  0  0  0  0  0  0  0  0  0  0  0
   -0.3160    9.7470   -6.6470 C   0  0  0  0  0  0  0  0  0  0  0  0
   -1.6280   11.3610   -5.4450 C   0  0  0  0  0  0  0  0  0  0  0  0
   -1.7010   14.6220   -0.7590 C   0  0  0  0  0  0  0  0  0  0  0  0
   -1.4590    8.9790   -6.8780 C   0  0  0  0  0  0  0  0  0  0  0  0
   -2.7730   10.5930   -5.6800 C   0  0  0  0  0  0  0  0  0  0  0  0
   -2.0130   14.8250    0.5960 C   0  0  0  0  0  0  0  0  0  0  0  0
   -2.6050   14.8400   -1.7610 N   0  0  0  0  0  0  0  0  0  0  0  0
   -1.1650   14.6340    1.6620 O   0  0  0  0  0  0  0  0  0  0  0  0
   -2.6870    9.4010   -6.3940 C   0  0  0  0  0  0  0  0  0  0  0  0
   -3.3000   15.2650    0.9080 C   0  0  0  0  0  0  0  0  0  0  0  0
   -3.8320   15.2660   -1.4180 C   0  0  0  0  0  0  0  0  0  0  0  0
   -4.2240   15.4900   -0.1130 C   0  0  0  0  0  0  0  0  0  0  0  0
  2  1  1  0
  2  3  1  0
  2  4  1  0
  2  5  1  0
  4  6  1  0
  5  7  1  0
  7  8  2  3
  6  9  1  0
  8 10  1  0
  9 11  2  0
  9 12  1  0
  8 13  1  0
 11 14  1  0
 12 15  2  0
 13 16  2  0
 13 17  1  0
 16 18  1  0
 14 19  2  0
 15 19  1  0
 16 20  1  0
 17 21  2  0
 20 22  2  0
 21 22  1  0
M  END
