mac-x0357-mac-x0396
     RDKit          3D

 21 22  0  0  0  0  0  0  0  0999 V2000
    2.3930   13.2270   -4.2780 C   0  0  0  0  0  0  0  0  0  0  0  0
    1.1170   12.5390   -4.6770 C   0  0  0  0  0  0  0  0  0  0  0  0
    0.9970   11.9450   -5.9430 C   0  0  0  0  0  0  0  0  0  0  0  0
   -0.0120   12.4460   -3.8230 C   0  0  0  0  0  0  0  0  0  0  0  0
    2.0110   11.9610   -6.8340 O   0  0  0  0  0  0  0  0  0  0  0  0
   -0.1520   12.9850   -2.4450 C   0  0  0  0  0  0  0  0  0  0  0  0
   -1.1750   11.7840   -4.2620 C   0  0  0  0  0  0  0  0  0  0  0  0
   -0.1550   11.2950   -6.3710 C   0  0  0  0  0  0  0  0  0  0  0  0
   -1.0330   13.8840   -2.2170 N   0  0  0  0  0  0  0  0  0  0  0  0
    0.6650   12.4250   -1.5230 O   0  0  0  0  0  0  0  0  0  0  0  0
   -1.2510   11.2110   -5.5290 C   0  0  0  0  0  0  0  0  0  0  0  0
   -1.3620   14.4540   -0.9180 C   0  0  0  0  0  0  0  0  0  0  0  0
   -2.8260   14.6190   -0.9290 N   0  0  0  0  0  0  0  0  0  0  0  0
   -3.6050   14.7150    0.1040 C   0  0  0  0  0  0  0  0  0  0  0  0
   -3.0410   14.7030    1.3620 N   0  0  0  0  0  0  0  0  0  0  0  0
   -5.0850   14.7800   -0.0070 C   0  0  0  0  0  0  0  0  0  0  0  0
   -5.7140   14.9730   -1.2300 C   0  0  0  0  0  0  0  0  0  0  0  0
   -5.8840   14.6300    1.1130 C   0  0  0  0  0  0  0  0  0  0  0  0
   -7.0660   15.0110   -1.3740 N   0  0  0  0  0  0  0  0  0  0  0  0
   -7.2680   14.6610    1.0000 C   0  0  0  0  0  0  0  0  0  0  0  0
   -7.8090   14.8530   -0.2580 C   0  0  0  0  0  0  0  0  0  0  0  0
  1  2  1  0
  2  3  2  0
  2  4  1  0
  3  5  1  0
  4  6  1  0
  4  7  2  0
  3  8  1  0
  6  9  2  3
  6 10  1  0
  7 11  1  0
  8 11  2  0
  9 12  1  0
 12 13  1  0
 13 14  2  3
 14 15  1  0
 14 16  1  0
 16 17  2  0
 16 18  1  0
 17 19  1  0
 18 20  2  0
 19 21  2  0
 20 21  1  0
M  END
