mac-x0139-diamond-x0282_0_A
     RDKit          3D

 18 19  0  0  0  0  0  0  0  0999 V2000
   -2.2140   15.0570   -3.4740 C   0  0  0  0  0  0  0  0  0  0  0  0
   -1.1730   14.7890   -2.4840 N   0  0  0  0  0  0  0  0  0  0  0  0
    0.2080   14.9530   -3.0050 C   0  0  0  0  0  0  0  0  0  0  0  0
   -1.4020   14.7860   -1.0890 C   0  0  0  0  0  0  0  0  0  0  0  0
    0.5970   13.8100   -3.9390 C   0  0  0  0  0  0  0  0  0  0  0  0
   -2.6470   14.8030   -0.5360 C   0  0  0  0  0  0  0  0  0  0  0  0
   -0.2590   14.7790   -0.2690 N   0  0  0  0  0  0  0  0  0  0  0  0
    0.9780   12.5720   -3.1760 C   0  0  0  0  0  0  0  0  0  0  0  0
   -2.7430   14.7960    0.9420 C   0  0  0  0  0  0  0  0  0  0  0  0
   -0.4100   14.7640    1.0190 C   0  0  0  0  0  0  0  0  0  0  0  0
   -4.0270   14.8300   -0.9470 C   0  0  0  0  0  0  0  0  0  0  0  0
    1.6390   12.4990   -2.1640 O   0  0  0  0  0  0  0  0  0  0  0  0
    0.4990   11.4510   -3.7490 O   0  0  0  0  0  0  0  0  0  0  0  0
   -1.6030   14.7290    1.6670 N   0  0  0  0  0  0  0  0  0  0  0  0
   -3.9810   14.8510    1.3480 N   0  0  0  0  0  0  0  0  0  0  0  0
   -4.7630   14.8500    0.1880 C   0  0  0  0  0  0  0  0  0  0  0  0
   -6.2840   14.8720    0.3160 C   0  0  0  0  0  0  0  0  0  0  0  0
   -6.9420   13.6670   -0.0700 O   0  0  0  0  0  0  0  0  0  0  0  0
  1  2  1  0
  2  3  1  0
  2  4  1  0
  3  5  1  0
  4  6  2  0
  4  7  1  0
  5  8  1  0
  6  9  1  0
  7 10  2  0
  6 11  1  0
  8 12  2  0
  8 13  1  0
  9 14  1  0
 10 14  1  0
  9 15  2  0
 11 16  2  0
 15 16  1  0
 16 17  1  0
 17 18  1  0
M  END
