mac-x0455-mac-x0223
     RDKit          3D

 23 24  0  0  0  0  0  0  0  0999 V2000
   -1.7040   12.9810   -1.6200 C   0  0  0  0  0  0  0  0  0  0  0  0
   -1.0870   13.4040   -2.9450 C   0  0  1  0  0  0  0  0  0  0  0  0
   -1.8730   14.5350   -3.2720 O   0  0  0  0  0  0  0  0  0  0  0  0
    0.4960   13.5450   -2.8470 S   0  0  0  0  0  0  0  0  0  0  0  0
   -1.2910   12.4380   -4.0870 C   0  0  0  0  0  0  0  0  0  0  0  0
    1.4780   13.3640   -1.4340 O   0  0  0  0  0  0  0  0  0  0  0  0
    0.4730   14.8470   -2.2830 O   0  0  0  0  0  0  0  0  0  0  0  0
    1.1910   13.9130   -4.3070 C   0  0  0  0  0  0  0  0  0  0  0  0
    0.7350   11.9910   -2.9470 O   0  0  0  0  0  0  0  0  0  0  0  0
   -2.4340   11.7030   -4.2240 C   0  0  0  0  0  0  0  0  0  0  0  0
   -0.2690   12.2940   -5.0230 C   0  0  0  0  0  0  0  0  0  0  0  0
   -2.5410   10.8300   -5.2920 C   0  0  0  0  0  0  0  0  0  0  0  0
   -0.3630   11.4340   -6.0840 C   0  0  0  0  0  0  0  0  0  0  0  0
    0.1710   14.9570   -4.6210 C   0  0  0  0  0  0  0  0  0  0  0  0
   -1.5120   10.6940   -6.2170 C   0  0  0  0  0  0  0  0  0  0  0  0
   -1.1870   14.7040   -4.8060 C   0  0  0  0  0  0  0  0  0  0  0  0
    0.5840   16.2310   -4.6980 C   0  0  0  0  0  0  0  0  0  0  0  0
   -0.2370   17.2660   -4.9180 C   0  0  0  0  0  0  0  0  0  0  0  0
   -2.0590   15.7700   -5.0230 C   0  0  0  0  0  0  0  0  0  0  0  0
    0.2220   18.5140   -5.0020 O   0  0  0  0  0  0  0  0  0  0  0  0
   -1.5650   17.0460   -5.0640 C   0  0  0  0  0  0  0  0  0  0  0  0
    1.3540   18.7200   -5.7280 C   0  0  0  0  0  0  0  0  0  0  0  0
   -2.4040   18.1160   -5.2440 O   0  0  0  0  0  0  0  0  0  0  0  0
  2  1  1  1
  2  3  1  0
  2  4  1  0
  2  5  1  0
  4  6  2  0
  4  7  1  0
  4  8  1  0
  4  9  1  0
  5 10  2  0
  5 11  1  0
 10 12  1  0
 11 13  2  0
  8 14  1  0
 12 15  2  0
 13 15  1  0
 14 16  2  0
 14 17  1  0
 17 18  2  0
 16 19  1  0
 18 20  1  0
 18 21  1  0
 19 21  2  0
 20 22  1  0
 21 23  1  0
M  END
