mac-x0397-mac-x0159
     RDKit          3D

 23 26  0  0  0  0  0  0  0  0999 V2000
   -5.9960   15.0720   -2.5820 Cl  0  0  0  0  0  0  0  0  0  0  0  0
   -4.4310   14.5470   -1.8810 C   0  0  2  0  0  0  0  0  0  0  0  0
   -4.6530   14.6110   -0.3860 C   0  0  0  0  0  0  0  0  0  0  0  0
   -3.1630   15.4040   -2.3330 C   0  0  2  0  0  0  0  0  0  0  0  0
   -2.1050   14.8390   -3.3590 C   0  0  0  0  0  0  0  0  0  0  0  0
   -5.8940   14.5800    0.2550 N   0  0  0  0  0  0  0  0  0  0  0  0
   -3.5960   14.7130    0.4550 C   0  0  0  0  0  0  0  0  0  0  0  0
   -2.3410   15.8500   -1.0770 C   0  0  2  0  0  0  0  0  0  0  0  0
   -0.9840   16.2260   -1.3180 N   0  0  0  0  0  0  0  0  0  0  0  0
   -5.7040   14.6650    1.5600 C   0  0  0  0  0  0  0  0  0  0  0  0
   -4.0760   14.7800    2.0500 S   0  0  0  0  0  0  0  0  0  0  0  0
   -2.2100   14.7850    0.0020 C   0  0  1  0  0  0  0  0  0  0  0  0
   -1.1760   15.8910   -3.9810 C   0  0  0  0  0  0  0  0  0  0  0  0
   -6.6720   14.6660    2.4890 N   0  0  0  0  0  0  0  0  0  0  0  0
    0.1830   16.1250   -3.7580 C   0  0  0  0  0  0  0  0  0  0  0  0
   -1.7360   16.7590   -4.9080 N   0  0  0  0  0  0  0  0  0  0  0  0
   -1.3710   15.2710    1.1180 N   0  0  0  0  0  0  0  0  0  0  0  0
   -1.3810   13.6520   -0.5720 C   0  0  0  0  0  0  0  0  0  0  0  0
   -0.8410   17.6100   -5.3650 C   0  0  0  0  0  0  0  0  0  0  0  0
    0.7350   17.4430   -4.7220 S   0  0  0  0  0  0  0  0  0  0  0  0
   -0.0250   14.2120   -0.4550 N   0  0  0  0  0  0  0  0  0  0  0  0
   -0.0470   14.7110    0.9090 C   0  0  0  0  0  0  0  0  0  0  0  0
   -1.1360   18.6660   -6.3730 C   0  0  0  0  0  0  0  0  0  0  0  0
  2  1  1  6
  2  3  1  0
  2  4  1  0
  4  5  1  6
  3  6  1  0
  3  7  2  0
  4  8  1  0
  8  9  1  6
  6 10  2  0
  7 11  1  0
 10 11  1  0
  7 12  1  0
  8 12  1  0
  5 13  1  0
 10 14  1  0
 13 15  2  0
 13 16  1  0
 12 17  1  0
 12 18  1  6
 16 19  2  0
 15 20  1  0
 19 20  1  0
 18 21  1  0
 17 22  1  0
 21 22  1  0
 19 23  1  0
M  END
