mac-x0337-mac-x0131
     RDKit          3D

 26 29  0  0  0  0  0  0  0  0999 V2000
   -5.5260    8.9770   -2.4080 C   0  0  0  0  0  0  0  0  0  0  0  0
   -5.2890   10.3570   -1.8810 C   0  0  0  0  0  0  0  0  0  0  0  0
   -6.2500   10.9570   -1.0670 C   0  0  0  0  0  0  0  0  0  0  0  0
   -4.1130   11.0530   -2.1900 C   0  0  0  0  0  0  0  0  0  0  0  0
   -3.9150   12.3380   -1.6830 C   0  0  0  0  0  0  0  0  0  0  0  0
   -6.0500   12.2300   -0.5670 C   0  0  0  0  0  0  0  0  0  0  0  0
   -4.8940   12.9250   -0.8690 C   0  0  0  0  0  0  0  0  0  0  0  0
   -4.7230   14.5810   -0.1830 S   0  0  0  0  0  0  0  0  0  0  0  0
   -6.0440   15.0140    0.2600 O   0  0  0  0  0  0  0  0  0  0  0  0
   -4.5920   15.1670   -1.6700 N   0  0  0  0  0  0  0  0  0  0  0  0
   -3.2720   15.5930   -1.9940 C   0  0  2  0  0  0  0  0  0  0  0  0
   -2.6250   14.7840   -3.1160 C   0  0  1  0  0  0  0  0  0  0  0  0
   -2.2430   15.5150   -0.8440 C   0  0  2  0  0  0  0  0  0  0  0  0
   -3.0790   15.3350   -4.4710 C   0  0  0  0  0  0  0  0  0  0  0  0
   -1.1150   14.7270   -1.4140 C   0  0  1  0  0  0  0  0  0  0  0  0
   -1.2250   15.0960   -2.8200 N   0  0  0  0  0  0  0  0  0  0  0  0
   -2.5110   14.9880    0.5460 C   0  0  0  0  0  0  0  0  0  0  0  0
   -0.2380   14.5680   -3.7420 C   0  0  0  0  0  0  0  0  0  0  0  0
   -1.3170   15.1280    1.3630 N   0  0  0  0  0  0  0  0  0  0  0  0
    0.0500   15.1860   -0.7000 N   0  0  0  0  0  0  0  0  0  0  0  0
   -0.0420   14.8230    0.7200 C   0  0  0  0  0  0  0  0  0  0  0  0
   -0.2700   13.0920   -3.7660 C   0  0  0  0  0  0  0  0  0  0  0  0
    0.6390   12.1210   -3.4200 C   0  0  0  0  0  0  0  0  0  0  0  0
   -1.4240   12.5190   -4.2130 O   0  0  0  0  0  0  0  0  0  0  0  0
   -1.2510   11.1810   -4.1480 C   0  0  0  0  0  0  0  0  0  0  0  0
   -0.0050   10.8830   -3.6680 C   0  0  0  0  0  0  0  0  0  0  0  0
  1  2  1  0
  2  3  2  0
  2  4  1  0
  4  5  2  0
  3  6  1  0
  5  7  1  0
  6  7  2  0
  7  8  1  0
  8  9  2  0
  8 10  1  6
 11 10  1  1
 11 12  1  0
 11 13  1  0
 12 14  1  6
 13 15  1  0
 12 16  1  0
 15 16  1  0
 13 17  1  1
 16 18  1  0
 17 19  1  0
 15 20  1  1
 19 21  1  0
 20 21  1  0
 18 22  1  0
 22 23  2  0
 22 24  1  0
 24 25  1  0
 23 26  1  0
 25 26  2  0
M  END
