mac-x0284-mac-x0587
     RDKit          3D

 18 18  0  0  0  0  0  0  0  0999 V2000
   -4.0040   15.3040    0.8740 C   0  0  0  0  0  0  0  0  0  0  0  0
   -3.5020   15.1490   -0.5290 C   0  0  0  0  0  0  0  0  0  0  0  0
   -4.3800   15.2690   -1.6100 C   0  0  0  0  0  0  0  0  0  0  0  0
   -2.1500   14.8860   -0.7770 C   0  0  0  0  0  0  0  0  0  0  0  0
   -1.6760   14.7550   -2.0970 C   0  0  0  0  0  0  0  0  0  0  0  0
   -3.9070   15.1290   -2.9140 C   0  0  0  0  0  0  0  0  0  0  0  0
   -0.2330   14.5040   -2.2910 C   0  0  0  0  0  0  0  0  0  0  0  0
   -2.5580   14.8740   -3.1810 C   0  0  0  0  0  0  0  0  0  0  0  0
   -2.1370   14.7550   -4.4820 N   0  0  0  0  0  0  0  0  0  0  0  0
    0.4370   14.2690   -1.2840 O   0  0  0  0  0  0  0  0  0  0  0  0
    0.2980   14.5630   -3.5850 N   0  0  0  0  0  0  0  0  0  0  0  0
    0.6680   15.8700   -4.1210 C   0  0  0  0  0  0  0  0  0  0  0  0
    0.1130   13.3130   -4.7500 S   0  0  0  0  0  0  0  0  0  0  0  0
   -2.9630   15.2500   -5.2510 O   0  0  0  0  0  0  0  0  0  0  0  0
   -0.7150   12.0480   -3.7440 C   0  0  0  0  0  0  0  0  0  0  0  0
    0.2050   11.3290   -2.7840 C   0  0  0  0  0  0  0  0  0  0  0  0
    0.5320   10.1730   -2.8880 O   0  0  0  0  0  0  0  0  0  0  0  0
    0.6390   12.0940   -1.7400 O   0  0  0  0  0  0  0  0  0  0  0  0
  1  2  1  0
  2  3  2  0
  2  4  1  0
  4  5  2  0
  3  6  1  0
  5  7  1  0
  5  8  1  0
  6  8  2  0
  8  9  1  0
  7 10  2  0
  7 11  1  0
 11 12  1  0
 11 13  1  0
  9 14  2  0
 13 15  1  0
 15 16  1  0
 16 17  2  0
 16 18  1  0
M  END
