mac-x0441-mac-x0212
     RDKit          3D

 32 34  0  0  0  0  0  0  0  0999 V2000
    1.2270   10.9590   -3.6280 O   0  0  0  0  0  0  0  0  0  0  0  0
    0.9880   12.2700   -3.7540 C   0  0  0  0  0  0  0  0  0  0  0  0
    1.2650   13.0900   -2.8280 N   0  0  0  0  0  0  0  0  0  0  0  0
    0.3790   12.8110   -5.0200 C   0  0  0  0  0  0  0  0  0  0  0  0
    0.9040   14.4660   -3.1150 C   0  0  0  0  0  0  0  0  0  0  0  0
    0.0730   11.8710   -6.0790 N   0  0  0  0  0  0  0  0  0  0  0  0
   -0.3340   14.6050   -2.3890 N   0  0  0  0  0  0  0  0  0  0  0  0
    0.9020   11.8380   -7.1570 N   0  0  0  0  0  0  0  0  0  0  0  0
   -0.9580   10.9880   -6.1780 C   0  0  0  0  0  0  0  0  0  0  0  0
   -1.5270   14.6830   -2.8540 C   0  0  0  0  0  0  0  0  0  0  0  0
    0.3640   10.9020   -7.9750 C   0  0  0  0  0  0  0  0  0  0  0  0
   -0.7960   10.3550   -7.3890 C   0  0  0  0  0  0  0  0  0  0  0  0
   -2.0490   10.7320   -5.1980 C   0  0  0  0  0  0  0  0  0  0  0  0
    0.8960   10.4670   -9.3250 C   0  0  0  0  0  0  0  0  0  0  0  0
   -1.9350   14.6660   -4.1380 O   0  0  0  0  0  0  0  0  0  0  0  0
   -1.7180    9.3030   -7.8790 C   0  0  0  0  0  0  0  0  0  0  0  0
   -3.0800    9.7420   -5.7800 C   0  0  0  0  0  0  0  0  0  0  0  0
   -2.6120   14.8190   -1.8670 C   0  0  0  0  0  0  0  0  0  0  0  0
    1.5930    9.3030   -9.2320 F   0  0  0  0  0  0  0  0  0  0  0  0
   -0.1000   10.2330  -10.2100 F   0  0  0  0  0  0  0  0  0  0  0  0
    1.6940   11.3490   -9.9500 F   0  0  0  0  0  0  0  0  0  0  0  0
   -2.4570    8.6700   -6.6900 C   0  0  0  0  0  0  0  0  0  0  0  0
   -2.3550   14.4110   -0.5550 C   0  0  0  0  0  0  0  0  0  0  0  0
   -3.8720   15.3480   -2.2020 C   0  0  0  0  0  0  0  0  0  0  0  0
   -3.3300   14.5260    0.4200 C   0  0  0  0  0  0  0  0  0  0  0  0
   -4.8580   15.4650   -1.2150 C   0  0  0  0  0  0  0  0  0  0  0  0
   -4.5670   15.0490    0.0880 C   0  0  0  0  0  0  0  0  0  0  0  0
   -5.5220   15.1400    1.1290 N   0  0  0  0  0  0  0  0  0  0  0  0
   -7.0140   14.3660    0.9590 S   0  0  0  0  0  0  0  0  0  0  0  0
   -6.5400   12.7000    1.3720 C   0  0  0  0  0  0  0  0  0  0  0  0
   -7.8400   14.8750    2.0380 O   0  0  0  0  0  0  0  0  0  0  0  0
   -7.4640   14.4400   -0.4090 O   0  0  0  0  0  0  0  0  0  0  0  0
  1  2  1  0
  2  3  2  3
  2  4  1  0
  3  5  1  0
  4  6  1  0
  5  7  1  0
  6  8  1  0
  6  9  1  0
  7 10  2  3
  8 11  2  0
  9 12  2  0
 11 12  1  0
  9 13  1  0
 11 14  1  0
 10 15  1  0
 12 16  1  0
 13 17  1  0
 10 18  1  0
 14 19  1  0
 14 20  1  0
 14 21  1  0
 16 22  1  0
 17 22  1  0
 18 23  2  0
 18 24  1  0
 23 25  1  0
 24 26  2  0
 25 27  2  0
 26 27  1  0
 27 28  1  0
 29 28  1  0
 29 30  1  0
 29 31  2  0
 29 32  2  0
M  END
