mac-x0587-mac-x0190
     RDKit          3D

 21 22  0  0  0  0  0  0  0  0999 V2000
   -0.0990   15.9790   -4.0270 C   0  0  0  0  0  0  0  0  0  0  0  0
   -0.7590   14.6830   -3.5340 C   0  0  2  0  0  0  0  0  0  0  0  0
   -0.3570   13.4070   -4.8060 S   0  0  0  0  0  0  0  0  0  0  0  0
   -2.2910   14.8780   -3.3270 C   0  0  0  0  0  0  0  0  0  0  0  0
   -0.6680   11.8630   -3.8690 C   0  0  0  0  0  0  0  0  0  0  0  0
   -2.9700   15.3240   -4.2540 O   0  0  0  0  0  0  0  0  0  0  0  0
   -2.8540   14.5340   -2.0790 N   0  0  0  0  0  0  0  0  0  0  0  0
    0.4490   11.4910   -2.9170 C   0  0  0  0  0  0  0  0  0  0  0  0
   -4.1590   13.9250   -1.7910 C   0  0  0  0  0  0  0  0  0  0  0  0
   -2.3260   14.8520   -0.8260 C   0  0  0  0  0  0  0  0  0  0  0  0
    0.5730   10.3460   -2.4880 O   0  0  0  0  0  0  0  0  0  0  0  0
    1.2920   12.4940   -2.5610 O   0  0  0  0  0  0  0  0  0  0  0  0
   -1.1580   14.8740   -0.4640 O   0  0  0  0  0  0  0  0  0  0  0  0
   -4.6530   14.6210   -0.5170 C   0  0  1  0  0  0  0  0  0  0  0  0
   -3.4240   15.1680    0.0080 N   0  0  0  0  0  0  0  0  0  0  0  0
   -5.7340   15.5700   -0.9490 C   0  0  0  0  0  0  0  0  0  0  0  0
   -5.4510   13.8170    0.4680 N   0  0  0  0  0  0  0  0  0  0  0  0
   -6.6830   14.3000    0.4380 C   0  0  0  0  0  0  0  0  0  0  0  0
   -6.8920   15.3340   -0.4180 N   0  0  0  0  0  0  0  0  0  0  0  0
   -7.8560   13.7920    1.2870 C   0  0  0  0  0  0  0  0  0  0  0  0
   -8.5750   14.8430    1.9330 O   0  0  0  0  0  0  0  0  0  0  0  0
  2  1  1  6
  2  3  1  0
  2  4  1  0
  3  5  1  0
  4  6  2  0
  4  7  1  0
  5  8  1  0
  7  9  1  0
  7 10  1  0
  8 11  2  0
  8 12  1  0
 10 13  2  0
 14  9  1  6
 10 15  1  0
 14 15  1  0
 14 16  1  0
 14 17  1  0
 17 18  2  0
 16 19  2  0
 18 19  1  0
 18 20  1  0
 20 21  1  0
M  END
