mac-x0223-mac-x0123
     RDKit          3D

 28 31  0  0  0  0  0  0  0  0999 V2000
    1.1350   18.3630   -5.5620 C   0  0  0  0  0  0  0  0  0  0  0  0
    0.1740   18.0540   -4.5490 O   0  0  0  0  0  0  0  0  0  0  0  0
   -0.1100   16.7190   -4.6420 C   0  0  0  0  0  0  0  0  0  0  0  0
   -1.3940   16.2750   -4.8590 C   0  0  0  0  0  0  0  0  0  0  0  0
    0.8940   15.7580   -4.5070 C   0  0  0  0  0  0  0  0  0  0  0  0
   -2.4640   17.0150   -4.9630 O   0  0  0  0  0  0  0  0  0  0  0  0
   -1.7190   14.9430   -4.9740 C   0  0  0  0  0  0  0  0  0  0  0  0
    0.5560   14.3870   -4.6000 C   0  0  0  0  0  0  0  0  0  0  0  0
    1.5320   13.2680   -4.4300 C   0  0  0  0  0  0  0  0  0  0  0  0
   -3.3170   15.9770   -4.4190 C   0  0  0  0  0  0  0  0  0  0  0  0
   -0.7500   14.0020   -4.8430 C   0  0  0  0  0  0  0  0  0  0  0  0
    1.0330   12.4170   -3.2780 C   0  0  0  0  0  0  0  0  0  0  0  0
   -2.6320   14.9770   -3.4980 C   0  0  0  0  0  0  0  0  0  0  0  0
    0.4080   11.3670   -3.3090 O   0  0  0  0  0  0  0  0  0  0  0  0
    1.3310   12.9700   -2.0820 O   0  0  0  0  0  0  0  0  0  0  0  0
   -3.5810   14.8600   -2.3820 C   0  0  0  0  0  0  0  0  0  0  0  0
   -4.8970   14.6490   -2.6560 N   0  0  0  0  0  0  0  0  0  0  0  0
   -3.2580   14.9610   -1.0890 N   0  0  0  0  0  0  0  0  0  0  0  0
   -4.4820   14.8040   -0.5080 N   0  0  0  0  0  0  0  0  0  0  0  0
   -5.4640   14.6140   -1.4880 C   0  0  0  0  0  0  0  0  0  0  0  0
   -4.8020   14.8120    0.8610 C   0  0  0  0  0  0  0  0  0  0  0  0
   -6.7820   14.4280   -1.1860 N   0  0  0  0  0  0  0  0  0  0  0  0
   -3.7630   15.0130    1.7530 N   0  0  0  0  0  0  0  0  0  0  0  0
   -7.0590   14.4300    0.0690 C   0  0  0  0  0  0  0  0  0  0  0  0
   -6.0990   14.6120    1.1880 C   0  0  0  0  0  0  0  0  0  0  0  0
   -6.8790   14.5220    2.4610 C   0  0  0  0  0  0  0  0  0  0  0  0
   -8.4510   14.2500    0.5870 C   0  0  0  0  0  0  0  0  0  0  0  0
   -8.3330   14.7040    2.0420 C   0  0  0  0  0  0  0  0  0  0  0  0
  1  2  1  0
  2  3  1  0
  3  4  2  0
  3  5  1  0
  4  6  1  0
  4  7  1  0
  5  8  2  0
  8  9  1  0
  6 10  1  0
  7 11  2  0
  8 11  1  0
  9 12  1  0
 10 13  1  0
 12 14  2  0
 12 15  1  0
 13 16  1  0
 16 17  1  0
 16 18  2  0
 18 19  1  0
 17 20  2  0
 19 20  1  0
 19 21  1  0
 20 22  1  0
 21 23  1  0
 22 24  2  0
 21 25  2  0
 24 25  1  0
 25 26  1  0
 24 27  1  0
 26 28  1  0
 27 28  1  0
M  END
