mac-x0472-diamond-x0685_1_A
     RDKit          3D

 29 31  0  0  0  0  0  0  0  0999 V2000
   -4.4700   15.3770   -2.4980 O   0  0  0  0  0  0  0  0  0  0  0  0
   -3.4570   14.3750   -2.7350 S   0  0  1  0  0  0  0  0  0  0  0  0
   -2.5870   14.2790   -4.0030 N   0  0  0  0  0  0  0  0  0  0  0  0
   -2.3280   14.6150   -1.5230 N   0  0  0  0  0  0  0  0  0  0  0  0
   -4.2070   12.7880   -2.3720 C   0  0  0  0  0  0  0  0  0  0  0  0
   -2.5690   13.0280   -4.8300 C   0  0  0  0  0  0  0  0  0  0  0  0
   -2.7550   14.8300   -0.2640 C   0  0  0  0  0  0  0  0  0  0  0  0
   -3.5520   11.6040   -2.7060 C   0  0  0  0  0  0  0  0  0  0  0  0
   -5.4600   12.7460   -1.7510 C   0  0  0  0  0  0  0  0  0  0  0  0
   -1.5600   12.0070   -4.2000 C   0  0  1  0  0  0  0  0  0  0  0  0
   -2.0290   14.5040    0.7860 N   0  0  0  0  0  0  0  0  0  0  0  0
   -4.2690   15.5470    0.1590 S   0  0  0  0  0  0  0  0  0  0  0  0
   -4.1480   10.3770   -2.4280 C   0  0  0  0  0  0  0  0  0  0  0  0
   -6.0520   11.5110   -1.4720 C   0  0  0  0  0  0  0  0  0  0  0  0
   -1.6440   10.6870   -4.9240 N   0  0  0  0  0  0  0  0  0  0  0  0
   -0.1410   12.5620   -4.1480 C   0  0  0  0  0  0  0  0  0  0  0  0
   -3.8240   15.3540    1.7860 C   0  0  0  0  0  0  0  0  0  0  0  0
   -2.6470   14.8020    1.9700 N   0  0  0  0  0  0  0  0  0  0  0  0
   -5.3970   10.3350   -1.8130 C   0  0  0  0  0  0  0  0  0  0  0  0
    0.7590   11.9910   -2.7080 S   0  0  0  0  0  0  0  0  0  0  0  0
   -0.8330   10.4720   -6.1370 C   0  0  0  0  0  0  0  0  0  0  0  0
    2.3050   12.2930   -2.9560 O   0  0  0  0  0  0  0  0  0  0  0  0
    0.4720   10.4170   -2.5480 O   0  0  0  0  0  0  0  0  0  0  0  0
    0.2490   12.7440   -1.3890 O   0  0  0  0  0  0  0  0  0  0  0  0
   -0.6090    8.9660   -6.3980 C   0  0  0  0  0  0  0  0  0  0  0  0
   -1.5850   11.0880   -7.3330 C   0  0  0  0  0  0  0  0  0  0  0  0
    0.0710    8.6720   -7.7320 C   0  0  0  0  0  0  0  0  0  0  0  0
   -0.9580   10.7720   -8.6930 C   0  0  0  0  0  0  0  0  0  0  0  0
   -0.7140    9.2770   -8.8890 C   0  0  0  0  0  0  0  0  0  0  0  0
  1  2  2  0
  2  3  2  0
  2  4  1  1
  2  5  1  0
  3  6  1  0
  4  7  1  0
  5  8  2  0
  5  9  1  0
 10  6  1  6
  7 11  2  0
  7 12  1  0
  8 13  1  0
  9 14  2  0
 10 15  1  0
 10 16  1  0
 12 17  1  0
 11 18  1  0
 17 18  2  0
 13 19  2  0
 14 19  1  0
 16 20  1  0
 15 21  1  0
 20 22  1  0
 20 23  1  0
 20 24  1  0
 21 25  1  0
 21 26  1  0
 25 27  1  0
 26 28  1  0
 27 29  1  0
 28 29  1  0
M  END
