mac-x0179-mac-x0142
     RDKit          3D

 32 37  0  0  0  0  0  0  0  0999 V2000
    0.7310   11.9160   -1.4990 O   0  0  0  0  0  0  0  0  0  0  0  0
    0.4400   11.1720   -2.5870 C   0  0  0  0  0  0  0  0  0  0  0  0
    0.2900    9.9850   -2.5060 O   0  0  0  0  0  0  0  0  0  0  0  0
    0.3320   12.0390   -3.7920 C   0  0  2  0  0  0  0  0  0  0  0  0
    0.0200   11.3250   -5.0200 N   0  0  0  0  0  0  0  0  0  0  0  0
    1.3760   13.0510   -3.7210 C   0  0  1  0  0  0  0  0  0  0  0  0
    0.6380   11.3550   -6.2530 C   0  0  0  0  0  0  0  0  0  0  0  0
   -1.2310   10.8280   -5.1500 C   0  0  0  0  0  0  0  0  0  0  0  0
    2.1430   13.8190   -4.7300 C   0  0  0  0  0  0  0  0  0  0  0  0
    0.7850   14.2950   -4.3310 C   0  0  1  0  0  0  0  0  0  0  0  0
    1.5680   12.0190   -6.6540 O   0  0  0  0  0  0  0  0  0  0  0  0
   -2.1940   11.0030   -4.4280 O   0  0  0  0  0  0  0  0  0  0  0  0
   -0.0700   10.3300   -7.0370 C   0  0  0  0  0  0  0  0  0  0  0  0
   -1.2220   10.0150   -6.3390 C   0  0  0  0  0  0  0  0  0  0  0  0
   -0.2780   14.1340   -5.3740 C   0  0  0  0  0  0  0  0  0  0  0  0
    0.4210   15.3260   -3.2980 C   0  0  0  0  0  0  0  0  0  0  0  0
    0.2350    9.7130   -8.2310 C   0  0  0  0  0  0  0  0  0  0  0  0
   -2.1350    9.0820   -6.7740 C   0  0  0  0  0  0  0  0  0  0  0  0
   -1.6110   13.7340   -4.7660 C   0  0  0  0  0  0  0  0  0  0  0  0
   -0.8680   14.8670   -2.7030 N   0  0  0  0  0  0  0  0  0  0  0  0
   -0.6770    8.7550   -8.7010 C   0  0  0  0  0  0  0  0  0  0  0  0
   -1.8510    8.4430   -7.9780 C   0  0  0  0  0  0  0  0  0  0  0  0
   -1.9840   14.7020   -3.6580 C   0  0  0  0  0  0  0  0  0  0  0  0
   -1.1100   14.8290   -1.3140 C   0  0  0  0  0  0  0  0  0  0  0  0
   -0.1130   14.6710   -0.3700 N   0  0  0  0  0  0  0  0  0  0  0  0
   -2.3510   14.9750   -0.8040 C   0  0  0  0  0  0  0  0  0  0  0  0
   -0.3920   14.6160    0.9790 C   0  0  0  0  0  0  0  0  0  0  0  0
   -2.5660   14.9540    0.6640 C   0  0  0  0  0  0  0  0  0  0  0  0
   -3.6700   15.1950   -1.3130 C   0  0  0  0  0  0  0  0  0  0  0  0
   -1.5460   14.7310    1.5400 N   0  0  0  0  0  0  0  0  0  0  0  0
   -3.8070   15.1770    0.9850 N   0  0  0  0  0  0  0  0  0  0  0  0
   -4.4520   15.3150   -0.2340 C   0  0  0  0  0  0  0  0  0  0  0  0
  1  2  1  0
  2  3  2  0
  4  2  1  1
  4  5  1  0
  4  6  1  0
  5  7  1  0
  5  8  1  0
  6  9  1  6
  6 10  1  0
 10  9  1  6
  7 11  2  0
  8 12  2  0
  7 13  1  0
  8 14  1  0
 13 14  2  0
 10 15  1  0
 10 16  1  0
 13 17  1  0
 14 18  1  0
 15 19  1  0
 16 20  1  0
 17 21  2  0
 18 22  2  0
 21 22  1  0
 19 23  1  0
 20 23  1  0
 20 24  1  0
 24 25  1  0
 24 26  2  0
 25 27  1  0
 26 28  1  0
 26 29  1  0
 27 30  2  0
 28 30  1  0
 28 31  2  0
 29 32  2  0
 31 32  1  0
M  END
