mac-x0206-mac-x0411
     RDKit          3D

 26 27  0  0  0  0  0  0  0  0999 V2000
   -3.0330   15.1010   -0.3240 N   0  0  0  0  0  0  0  0  0  0  0  0
   -4.2580   15.0540   -0.9450 C   0  0  0  0  0  0  0  0  0  0  0  0
   -4.4420   15.1050   -2.2260 N   0  0  0  0  0  0  0  0  0  0  0  0
   -5.4910   14.9210   -0.0800 C   0  0  0  0  0  0  0  0  0  0  0  0
   -3.3200   15.2240   -3.1570 C   0  0  0  0  0  0  0  0  0  0  0  0
   -6.7700   14.7770   -0.6450 C   0  0  0  0  0  0  0  0  0  0  0  0
   -5.3910   14.9370    1.3190 C   0  0  0  0  0  0  0  0  0  0  0  0
   -6.9790   14.7500   -1.9960 O   0  0  0  0  0  0  0  0  0  0  0  0
   -3.5520   14.3620   -4.3990 C   0  0  0  0  0  0  0  0  0  0  0  0
   -7.9090   14.6510    0.1490 C   0  0  0  0  0  0  0  0  0  0  0  0
   -6.5410   14.8110    2.1160 C   0  0  0  0  0  0  0  0  0  0  0  0
   -3.1670   12.8880   -4.1870 C   0  0  0  0  0  0  0  0  0  0  0  0
   -7.7940   14.6670    1.5340 C   0  0  0  0  0  0  0  0  0  0  0  0
   -1.7360   12.5570   -4.6610 C   0  0  0  0  0  0  0  0  0  0  0  0
   -1.6620   11.2420   -5.4240 C   0  0  0  0  0  0  0  0  0  0  0  0
   -0.5270   10.7770   -6.1500 C   0  0  0  0  0  0  0  0  0  0  0  0
   -2.8130   10.4330   -5.4050 C   0  0  0  0  0  0  0  0  0  0  0  0
    0.6470   11.5020   -6.2140 O   0  0  0  0  0  0  0  0  0  0  0  0
   -2.8640    9.2130   -6.0710 C   0  0  0  0  0  0  0  0  0  0  0  0
   -0.6050    9.5340   -6.8300 C   0  0  0  0  0  0  0  0  0  0  0  0
    0.7010    8.8770   -7.7620 Cl  0  0  0  0  0  0  0  0  0  0  0  0
    0.8850   12.4990   -5.2100 C   0  0  0  0  0  0  0  0  0  0  0  0
   -1.7620    8.7680   -6.7840 C   0  0  0  0  0  0  0  0  0  0  0  0
    0.8320   11.9150   -3.7950 C   0  0  0  0  0  0  0  0  0  0  0  0
    1.3690   12.7330   -2.8560 O   0  0  0  0  0  0  0  0  0  0  0  0
    0.3690   10.8270   -3.4820 O   0  0  0  0  0  0  0  0  0  0  0  0
  1  2  1  0
  2  3  2  3
  2  4  1  0
  3  5  1  0
  4  6  2  0
  4  7  1  0
  6  8  1  0
  5  9  1  0
  6 10  1  0
  7 11  2  0
  9 12  1  0
 10 13  2  0
 11 13  1  0
 12 14  1  0
 14 15  1  0
 15 16  2  0
 15 17  1  0
 16 18  1  0
 17 19  2  0
 16 20  1  0
 20 21  1  0
 18 22  1  0
 19 23  1  0
 20 23  2  0
 22 24  1  0
 24 25  1  0
 24 26  2  0
M  END
