mac-x0306-diamond-x1012_0_A
     RDKit          3D

 25 27  0  0  0  0  0  0  0  0999 V2000
   -0.8720   17.8880   -5.9410 N   0  0  0  0  0  0  0  0  0  0  0  0
   -1.2300   16.9620   -5.0280 C   0  0  0  0  0  0  0  0  0  0  0  0
   -2.1540   17.2310   -4.2320 N   0  0  0  0  0  0  0  0  0  0  0  0
   -0.5180   15.7890   -5.0690 N   0  0  0  0  0  0  0  0  0  0  0  0
   -2.2980   16.1280   -3.3140 C   0  0  0  0  0  0  0  0  0  0  0  0
   -1.2430   14.5120   -5.2110 C   0  0  0  0  0  0  0  0  0  0  0  0
    0.8900   15.7610   -4.6620 C   0  0  0  0  0  0  0  0  0  0  0  0
   -3.5470   15.2770   -3.4600 C   0  0  0  0  0  0  0  0  0  0  0  0
   -1.1480   13.5980   -3.9950 C   0  0  0  0  0  0  0  0  0  0  0  0
    1.2620   14.4620   -3.9370 C   0  0  0  0  0  0  0  0  0  0  0  0
   -3.9980   15.1240   -2.0600 C   0  0  0  0  0  0  0  0  0  0  0  0
    0.0760   13.8940   -3.1430 C   0  0  0  0  0  0  0  0  0  0  0  0
    0.4130   12.6700   -2.3130 C   0  0  0  0  0  0  0  0  0  0  0  0
   -5.2990   14.9910   -1.5850 C   0  0  0  0  0  0  0  0  0  0  0  0
   -2.9170   15.1400   -1.2570 N   0  0  0  0  0  0  0  0  0  0  0  0
    0.4590   11.5110   -2.9970 O   0  0  0  0  0  0  0  0  0  0  0  0
    0.6080   12.7020   -1.1130 O   0  0  0  0  0  0  0  0  0  0  0  0
   -3.0880   15.0250    0.0480 C   0  0  0  0  0  0  0  0  0  0  0  0
   -5.4510   14.8660   -0.1980 C   0  0  0  0  0  0  0  0  0  0  0  0
   -6.7170   14.7130    0.5020 C   0  0  0  0  0  0  0  0  0  0  0  0
   -4.3180   14.8880    0.6160 C   0  0  0  0  0  0  0  0  0  0  0  0
   -6.8100   14.4730    1.8530 N   0  0  0  0  0  0  0  0  0  0  0  0
   -7.9260   14.7810   -0.0250 N   0  0  0  0  0  0  0  0  0  0  0  0
   -8.8010   14.5860    1.0080 C   0  0  0  0  0  0  0  0  0  0  0  0
   -8.1260   14.3930    2.1870 C   0  0  0  0  0  0  0  0  0  0  0  0
  1  2  1  0
  2  3  2  3
  2  4  1  0
  3  5  1  0
  4  6  1  0
  4  7  1  0
  5  8  1  0
  6  9  1  0
  7 10  1  0
  8 11  1  0
  9 12  1  0
 10 12  1  0
 12 13  1  0
 11 14  2  0
 11 15  1  0
 13 16  1  0
 13 17  2  0
 15 18  2  0
 14 19  1  0
 19 20  1  0
 18 21  1  0
 19 21  2  0
 20 22  1  0
 20 23  2  0
 23 24  1  0
 22 25  1  0
 24 25  2  0
M  END
