mac-x0392-diamond-x0724_0_A
     RDKit          3D

 17 18  0  0  0  0  0  0  0  0999 V2000
   -0.1940   14.9790    0.5320 N   0  0  0  0  0  0  0  0  0  0  0  0
   -1.4800   14.3910    0.1120 C   0  0  1  0  0  0  0  0  0  0  0  0
   -2.4420   14.2020    1.2680 C   0  0  0  0  0  0  0  0  0  0  0  0
   -2.2020   15.2900   -0.9050 C   0  0  1  0  0  0  0  0  0  0  0  0
   -1.6360   14.9950   -2.3040 C   0  0  0  0  0  0  0  0  0  0  0  0
   -3.7960   15.2860   -0.8310 C   0  0  0  0  0  0  0  0  0  0  0  0
   -3.6610   13.5090    0.8260 N   0  0  0  0  0  0  0  0  0  0  0  0
   -2.2770   14.8700   -3.3350 O   0  0  0  0  0  0  0  0  0  0  0  0
   -0.2780   14.8810   -2.3230 O   0  0  0  0  0  0  0  0  0  0  0  0
   -4.5610   14.4830    0.3130 C   0  0  2  0  0  0  0  0  0  0  0  0
   -5.8200   13.8640   -0.2330 N   0  0  0  0  0  0  0  0  0  0  0  0
   -5.0970   15.1370    1.6120 C   0  0  0  0  0  0  0  0  0  0  0  0
   -6.4620   14.4520    1.9350 C   0  0  2  0  0  0  0  0  0  0  0  0
   -7.0110   14.3450    0.5350 C   0  0  0  0  0  0  0  0  0  0  0  0
   -7.4370   14.9960    3.0350 C   0  0  0  0  0  0  0  0  0  0  0  0
   -7.9940   13.9420    3.8940 N   0  0  0  0  0  0  0  0  0  0  0  0
   -8.6650   14.4390    5.0930 C   0  0  0  0  0  0  0  0  0  0  0  0
  2  1  1  1
  2  3  1  0
  2  4  1  0
  4  5  1  6
  4  6  1  0
  3  7  1  0
  5  8  2  0
  5  9  1  0
 10  6  1  6
 10  7  1  0
 10 11  1  0
 10 12  1  0
 12 13  1  0
 11 14  1  0
 13 14  1  0
 13 15  1  1
 15 16  1  0
 16 17  1  0
M  END
