mac-x0358-diamond-x1015_0_A
     RDKit          3D

 24 26  0  0  0  0  0  0  0  0999 V2000
    2.4820   14.0780   -3.0660 O   0  0  0  0  0  0  0  0  0  0  0  0
    1.7720   13.1360   -3.9140 C   0  0  2  0  0  0  0  0  0  0  0  0
    1.1570   13.9300   -5.1150 C   0  0  0  0  0  0  0  0  0  0  0  0
    0.8440   12.3360   -2.9630 C   0  0  2  0  0  0  0  0  0  0  0  0
   -0.3280   14.2650   -5.2150 C   0  0  0  0  0  0  0  0  0  0  0  0
   -0.4880   12.0940   -3.4570 N   0  0  0  0  0  0  0  0  0  0  0  0
    0.6000   13.0810   -1.7650 N   0  0  0  0  0  0  0  0  0  0  0  0
   -1.2840   13.4640   -5.8760 C   0  0  0  0  0  0  0  0  0  0  0  0
   -0.7900   15.4570   -4.6280 C   0  0  0  0  0  0  0  0  0  0  0  0
   -1.3140   13.2650   -3.0780 C   0  0  2  0  0  0  0  0  0  0  0  0
   -0.5350   13.8330   -1.8900 C   0  0  0  0  0  0  0  0  0  0  0  0
   -0.7400   11.2490   -4.5180 C   0  0  0  0  0  0  0  0  0  0  0  0
   -0.9090   12.3120   -6.4780 O   0  0  0  0  0  0  0  0  0  0  0  0
   -2.6320   13.8250   -5.9420 C   0  0  0  0  0  0  0  0  0  0  0  0
   -2.1420   15.8210   -4.6970 C   0  0  0  0  0  0  0  0  0  0  0  0
   -2.7090   12.8920   -2.6150 C   0  0  0  0  0  0  0  0  0  0  0  0
   -0.8270   14.7710   -1.1670 O   0  0  0  0  0  0  0  0  0  0  0  0
    0.0960   11.2290   -5.6560 C   0  0  0  0  0  0  0  0  0  0  0  0
   -1.8270   10.3600   -4.5400 C   0  0  0  0  0  0  0  0  0  0  0  0
   -3.0590   15.0080   -5.3510 C   0  0  0  0  0  0  0  0  0  0  0  0
   -0.1340   10.3800   -6.7470 C   0  0  0  0  0  0  0  0  0  0  0  0
   -2.0660    9.5070   -5.6230 C   0  0  0  0  0  0  0  0  0  0  0  0
   -1.2180    9.5200   -6.7260 C   0  0  0  0  0  0  0  0  0  0  0  0
   -1.5130    8.4760   -8.0590 Cl  0  0  0  0  0  0  0  0  0  0  0  0
  2  1  1  1
  2  3  1  0
  2  4  1  0
  3  5  1  0
  4  6  1  0
  4  7  1  1
  5  8  2  0
  5  9  1  0
  6 10  1  0
  7 11  1  0
 10 11  1  0
  6 12  1  0
  8 13  1  0
  8 14  1  0
  9 15  2  0
 10 16  1  1
 11 17  2  0
 12 18  2  0
 12 19  1  0
 14 20  2  0
 15 20  1  0
 18 21  1  0
 19 22  2  0
 21 23  2  0
 22 23  1  0
 23 24  1  0
M  END
