mac-x0385-diamond-x0962_1_A
     RDKit          3D

 15 16  0  0  0  0  0  0  0  0999 V2000
   -4.8630   14.6650   -0.8730 C   0  0  1  0  0  0  0  0  0  0  0  0
   -5.1290   15.7300   -1.8320 N   0  0  0  0  0  0  0  0  0  0  0  0
   -3.5190   14.8060   -0.2970 C   0  0  0  0  0  0  0  0  0  0  0  0
   -6.0030   14.3170    0.1120 C   0  0  1  0  0  0  0  0  0  0  0  0
   -3.1650   15.2070    0.9790 C   0  0  0  0  0  0  0  0  0  0  0  0
   -2.4900   14.4990   -1.1450 C   0  0  0  0  0  0  0  0  0  0  0  0
   -5.9460   14.8880    1.4720 N   0  0  0  0  0  0  0  0  0  0  0  0
   -7.3820   14.7120   -0.3570 C   0  0  0  0  0  0  0  0  0  0  0  0
   -4.0690   15.5860    1.9580 N   0  0  0  0  0  0  0  0  0  0  0  0
   -1.9090   15.2660    1.3670 N   0  0  0  0  0  0  0  0  0  0  0  0
   -1.2190   14.5610   -0.8100 N   0  0  0  0  0  0  0  0  0  0  0  0
   -7.2580   14.5770    2.0000 C   0  0  0  0  0  0  0  0  0  0  0  0
   -8.1810   14.5220    0.8690 N   0  0  0  0  0  0  0  0  0  0  0  0
   -1.0130   14.9450    0.4440 C   0  0  0  0  0  0  0  0  0  0  0  0
    0.3520   15.0280    0.8550 C   0  0  0  0  0  0  0  0  0  0  0  0
  1  2  1  1
  1  3  1  0
  1  4  1  0
  3  5  2  0
  3  6  1  0
  4  7  1  0
  4  8  1  6
  5  9  1  0
  5 10  1  0
  6 11  2  0
  7 12  1  0
  8 13  1  0
 12 13  1  0
 10 14  2  0
 11 14  1  0
 14 15  1  0
M  END
