mac-x0415-mac-x0396
     RDKit          3D

 26 28  0  0  0  0  0  0  0  0999 V2000
    0.5070   11.1330   -3.1190 O   0  0  0  0  0  0  0  0  0  0  0  0
    0.7280   12.4410   -3.3600 C   0  0  0  0  0  0  0  0  0  0  0  0
    0.7250   13.3820   -2.5030 N   0  0  0  0  0  0  0  0  0  0  0  0
    0.9920   12.8350   -4.7790 C   0  0  0  0  0  0  0  0  0  0  0  0
    0.4790   13.1150   -1.1330 C   0  0  0  0  0  0  0  0  0  0  0  0
    0.7410   14.2790   -4.6870 C   0  0  0  0  0  0  0  0  0  0  0  0
   -0.9620   13.3290   -0.7040 C   0  0  0  0  0  0  0  0  0  0  0  0
    1.7450   15.3040   -4.4440 C   0  0  0  0  0  0  0  0  0  0  0  0
   -0.3460   15.0280   -4.7810 C   0  0  0  0  0  0  0  0  0  0  0  0
   -1.4270   14.7660   -0.7600 C   0  0  0  0  0  0  0  0  0  0  0  0
    1.3690   16.5480   -4.3880 N   0  0  0  0  0  0  0  0  0  0  0  0
   -0.0580   16.4490   -4.5110 C   0  0  1  0  0  0  0  0  0  0  0  0
   -1.6970   14.6760   -5.0530 C   0  0  0  0  0  0  0  0  0  0  0  0
   -2.8820   14.7960   -0.9450 N   0  0  0  0  0  0  0  0  0  0  0  0
   -0.8360   17.4130   -5.3370 C   0  0  0  0  0  0  0  0  0  0  0  0
   -2.5110   15.6270   -5.5600 C   0  0  0  0  0  0  0  0  0  0  0  0
   -4.2670   15.1890   -5.9820 Br  0  0  0  0  0  0  0  0  0  0  0  0
   -3.6740   14.8100    0.0770 C   0  0  0  0  0  0  0  0  0  0  0  0
   -2.0260   17.0010   -5.8210 C   0  0  0  0  0  0  0  0  0  0  0  0
   -3.1000   14.8030    1.3320 N   0  0  0  0  0  0  0  0  0  0  0  0
   -5.1480   14.8000   -0.0070 C   0  0  0  0  0  0  0  0  0  0  0  0
   -5.7960   14.9250   -1.2270 C   0  0  0  0  0  0  0  0  0  0  0  0
   -5.9140   14.6540    1.1350 C   0  0  0  0  0  0  0  0  0  0  0  0
   -7.1480   14.9030   -1.3470 N   0  0  0  0  0  0  0  0  0  0  0  0
   -7.2980   14.6250    1.0420 C   0  0  0  0  0  0  0  0  0  0  0  0
   -7.8670   14.7530   -0.2110 C   0  0  0  0  0  0  0  0  0  0  0  0
  1  2  1  0
  2  3  2  3
  2  4  1  0
  3  5  1  0
  4  6  1  0
  5  7  1  0
  6  8  1  0
  6  9  2  0
  7 10  1  0
  8 11  2  0
  9 12  1  0
 11 12  1  0
  9 13  1  0
 10 14  1  0
 12 15  1  6
 13 16  2  0
 16 17  1  0
 14 18  2  3
 15 19  2  0
 16 19  1  0
 18 20  1  0
 18 21  1  0
 21 22  2  0
 21 23  1  0
 22 24  1  0
 23 25  2  0
 24 26  2  0
 25 26  1  0
M  END
