mac-x0271-mac-x0379
     RDKit          3D

 16 17  0  0  0  0  0  0  0  0999 V2000
   -4.2170   15.1870   -3.7220 O   0  0  0  0  0  0  0  0  0  0  0  0
   -4.5460   15.0870   -2.4020 C   0  0  0  0  0  0  0  0  0  0  0  0
   -3.5690   14.9340   -1.4240 C   0  0  0  0  0  0  0  0  0  0  0  0
   -5.9080   15.1440   -2.1190 C   0  0  0  0  0  0  0  0  0  0  0  0
   -2.1280   14.8790   -1.9860 C   0  0  0  0  0  0  0  0  0  0  0  0
   -6.3450   15.0400   -0.8090 C   0  0  0  0  0  0  0  0  0  0  0  0
   -4.0420   14.8400   -0.0420 C   0  0  0  0  0  0  0  0  0  0  0  0
   -3.1230   14.6840    1.1150 C   0  0  0  0  0  0  0  0  0  0  0  0
   -1.8130   14.7970   -3.1760 O   0  0  0  0  0  0  0  0  0  0  0  0
   -1.1220   14.9380   -1.0870 O   0  0  0  0  0  0  0  0  0  0  0  0
   -5.4460   14.8880    0.2430 C   0  0  0  0  0  0  0  0  0  0  0  0
   -7.7450   15.0910   -0.6040 O   0  0  0  0  0  0  0  0  0  0  0  0
   -6.0420   14.7760    1.5870 C   0  0  0  0  0  0  0  0  0  0  0  0
   -8.3190   14.8870    0.6400 C   0  0  0  0  0  0  0  0  0  0  0  0
   -9.5340   14.8220    0.8090 O   0  0  0  0  0  0  0  0  0  0  0  0
   -7.3800   14.7670    1.7680 C   0  0  0  0  0  0  0  0  0  0  0  0
  1  2  1  0
  2  3  2  0
  2  4  1  0
  3  5  1  0
  4  6  2  0
  3  7  1  0
  7  8  1  0
  5  9  2  0
  5 10  1  0
  6 11  1  0
  7 11  2  0
  6 12  1  0
 11 13  1  0
 12 14  1  0
 14 15  2  0
 13 16  2  0
 14 16  1  0
M  END
