mac-x0124-diamond-x0592_0_A
     RDKit          3D

 21 23  0  0  0  0  0  0  0  0999 V2000
    0.4770   14.8870   -3.1890 C   0  0  0  0  0  0  0  0  0  0  0  0
   -0.7160   14.8990   -2.3850 N   0  0  0  0  0  0  0  0  0  0  0  0
   -2.0010   14.9730   -2.8660 C   0  0  0  0  0  0  0  0  0  0  0  0
   -0.7300   14.8410   -1.0070 C   0  0  0  0  0  0  0  0  0  0  0  0
   -2.8410   14.9670   -1.7840 C   0  0  0  0  0  0  0  0  0  0  0  0
   -2.0290   14.8790   -0.5980 C   0  0  0  0  0  0  0  0  0  0  0  0
    0.3210   14.7640   -0.1900 N   0  0  0  0  0  0  0  0  0  0  0  0
   -2.2510   14.8280    0.7830 C   0  0  0  0  0  0  0  0  0  0  0  0
   -0.0620   14.7280    1.1160 C   0  0  0  0  0  0  0  0  0  0  0  0
   -3.5460   14.8680    1.0400 N   0  0  0  0  0  0  0  0  0  0  0  0
   -1.2790   14.7450    1.6490 N   0  0  0  0  0  0  0  0  0  0  0  0
   -4.2050   14.6420   -0.0930 C   0  0  0  0  0  0  0  0  0  0  0  0
   -3.5250   14.3410   -1.0690 O   0  0  0  0  0  0  0  0  0  0  0  0
   -5.5680   14.7540   -0.2090 C   0  0  0  0  0  0  0  0  0  0  0  0
   -6.4000   15.1360   -1.2670 C   0  0  0  0  0  0  0  0  0  0  0  0
   -6.3760   14.4740    0.8260 C   0  0  0  0  0  0  0  0  0  0  0  0
   -7.6830   15.0990   -0.9110 N   0  0  0  0  0  0  0  0  0  0  0  0
   -7.6170   14.6910    0.3780 N   0  0  0  0  0  0  0  0  0  0  0  0
   -8.7800   14.5120    1.1920 C   0  0  0  0  0  0  0  0  0  0  0  0
   -8.3290   14.1070    2.5940 C   0  0  0  0  0  0  0  0  0  0  0  0
   -7.3740   15.0420    3.1110 O   0  0  0  0  0  0  0  0  0  0  0  0
  1  2  1  0
  2  3  1  0
  2  4  1  0
  3  5  2  0
  4  6  2  0
  5  6  1  0
  4  7  1  0
  6  8  1  0
  7  9  2  0
  8 10  1  0
  8 11  2  0
  9 11  1  0
 10 12  1  0
 12 13  2  0
 12 14  1  0
 14 15  1  0
 14 16  2  0
 15 17  2  0
 16 18  1  0
 17 18  1  0
 18 19  1  0
 19 20  1  0
 20 21  1  0
M  END
