mac-x0453-diamond-x0849_0_A
     RDKit          3D

 13 14  0  0  0  0  0  0  0  0999 V2000
   -6.8280   14.1400    2.2080 N   0  0  0  0  0  0  0  0  0  0  0  0
   -5.8350   14.0460    1.1390 C   0  0  0  0  0  0  0  0  0  0  0  0
   -4.6550   15.0030    1.3440 C   0  0  0  0  0  0  0  0  0  0  0  0
   -3.8990   15.5350    0.1000 C   0  0  1  0  0  0  0  0  0  0  0  0
   -2.6080   14.8060   -0.3450 C   0  0  1  0  0  0  0  0  0  0  0  0
   -4.8150   15.4620   -1.0720 N   0  0  0  0  0  0  0  0  0  0  0  0
   -3.0600   14.1320   -1.5880 N   0  0  0  0  0  0  0  0  0  0  0  0
   -3.9960   15.0340   -2.1810 C   0  0  0  0  0  0  0  0  0  0  0  0
   -1.2630   15.5870   -0.6420 C   0  0  0  0  0  0  0  0  0  0  0  0
   -2.2930   13.7640    0.6930 C   0  0  0  0  0  0  0  0  0  0  0  0
   -1.5020   14.3760    1.7290 N   0  0  0  0  0  0  0  0  0  0  0  0
   -0.0480   15.1590    0.1790 C   0  0  0  0  0  0  0  0  0  0  0  0
   -0.2510   14.5770    1.3510 C   0  0  0  0  0  0  0  0  0  0  0  0
  1  2  1  0
  2  3  1  0
  4  3  1  1
  4  5  1  0
  4  6  1  0
  5  7  1  0
  6  8  1  0
  7  8  1  0
  5  9  1  6
  5 10  1  0
 10 11  1  0
  9 12  1  0
 11 13  1  0
 12 13  2  0
M  END
