mac-x0588-diamond-x0844_0_A
     RDKit          3D

 25 28  0  0  0  0  0  0  0  0999 V2000
   -4.0610   15.5880    1.8970 N   0  0  0  0  0  0  0  0  0  0  0  0
   -3.2480   14.6840    1.1190 C   0  0  2  0  0  0  0  0  0  0  0  0
   -1.8640   15.2440    0.7640 C   0  0  2  0  0  0  0  0  0  0  0  0
   -3.9760   14.5250   -0.0950 N   0  0  0  0  0  0  0  0  0  0  0  0
   -3.8300   15.7590   -0.8510 C   0  0  0  0  0  0  0  0  0  0  0  0
   -1.5960   15.0610   -0.7170 C   0  0  1  0  0  0  0  0  0  0  0  0
   -0.7310   14.5260    1.3310 N   0  0  0  0  0  0  0  0  0  0  0  0
   -2.5340   15.7630   -1.5070 N   0  0  0  0  0  0  0  0  0  0  0  0
   -0.2390   15.5150   -0.7860 N   0  0  0  0  0  0  0  0  0  0  0  0
    0.3210   14.8520    0.3760 C   0  0  0  0  0  0  0  0  0  0  0  0
   -2.5010   15.6920   -2.9990 C   0  0  2  0  0  0  0  0  0  0  0  0
   -2.8120   14.3260   -3.6720 C   0  0  0  0  0  0  0  0  0  0  0  0
   -1.2780   16.4740   -3.6080 C   0  0  2  0  0  0  0  0  0  0  0  0
   -4.2160   13.9920   -3.5440 O   0  0  0  0  0  0  0  0  0  0  0  0
   -1.7610   17.6910   -4.2610 O   0  0  0  0  0  0  0  0  0  0  0  0
   -0.3230   15.8560   -4.6280 C   0  0  0  0  0  0  0  0  0  0  0  0
    0.3170   17.1020   -5.1910 C   0  0  0  0  0  0  0  0  0  0  0  0
   -0.8910   17.9910   -5.3680 C   0  0  0  0  0  0  0  0  0  0  0  0
   -4.7690   14.3110   -2.2530 C   0  0  2  0  0  0  0  0  0  0  0  0
   -4.5410   13.1530   -1.3200 C   0  0  0  0  0  0  0  0  0  0  0  0
   -6.2530   14.6520   -2.3440 C   0  0  0  0  0  0  0  0  0  0  0  0
   -5.3510   12.9490   -0.2720 C   0  0  0  0  0  0  0  0  0  0  0  0
   -6.9430   14.6220   -0.9930 C   0  0  0  0  0  0  0  0  0  0  0  0
   -7.9410   15.2920   -0.7350 O   0  0  0  0  0  0  0  0  0  0  0  0
   -6.3990   13.7960   -0.0390 N   0  0  0  0  0  0  0  0  0  0  0  0
  2  1  1  1
  2  3  1  0
  2  4  1  0
  4  5  1  0
  3  6  1  0
  3  7  1  1
  5  8  1  0
  6  8  1  0
  6  9  1  1
  7 10  1  0
  9 10  1  0
  8 11  1  0
 11 12  1  1
 11 13  1  0
 12 14  1  0
 13 15  1  0
 13 16  1  6
 16 17  1  0
 15 18  1  0
 17 18  1  0
 19 14  1  6
 19 20  1  0
 19 21  1  0
 20 22  2  0
 21 23  1  0
 23 24  2  0
 22 25  1  0
 23 25  1  0
M  END
