mac-x0472-diamond-x0900_0_A
     RDKit          3D

 19 21  0  0  0  0  0  0  0  0999 V2000
   -4.8890   15.3410   -2.7300 O   0  0  0  0  0  0  0  0  0  0  0  0
   -3.7590   14.4550   -2.8600 S   0  0  0  0  0  0  0  0  0  0  0  0
   -3.0040   14.3880   -4.0910 O   0  0  0  0  0  0  0  0  0  0  0  0
   -2.6150   14.8230   -1.6630 N   0  0  0  0  0  0  0  0  0  0  0  0
   -4.2980   12.7990   -2.4790 C   0  0  0  0  0  0  0  0  0  0  0  0
   -2.8490   14.8040   -0.2140 C   0  0  0  0  0  0  0  0  0  0  0  0
   -3.4730   11.7050   -2.7630 C   0  0  0  0  0  0  0  0  0  0  0  0
   -5.5580   12.6090   -1.9040 C   0  0  0  0  0  0  0  0  0  0  0  0
   -1.6970   14.8750    0.3750 N   0  0  0  0  0  0  0  0  0  0  0  0
   -4.1910   14.7130    0.8560 S   0  0  0  0  0  0  0  0  0  0  0  0
   -3.9250   10.4190   -2.4750 C   0  0  0  0  0  0  0  0  0  0  0  0
   -6.0010   11.3230   -1.6160 C   0  0  0  0  0  0  0  0  0  0  0  0
   -3.0680   14.7880    2.0360 C   0  0  0  0  0  0  0  0  0  0  0  0
   -1.8290   14.8680    1.7080 N   0  0  0  0  0  0  0  0  0  0  0  0
   -5.1880   10.2350   -1.9070 C   0  0  0  0  0  0  0  0  0  0  0  0
   -4.4280   14.7140   -0.8230 N   0  0  0  0  0  0  0  0  0  0  0  0
   -5.8520   14.5880    0.8610 C   0  0  0  0  0  0  0  0  0  0  0  0
   -5.7850   15.0200   -0.6250 C   0  0  0  0  0  0  0  0  0  0  0  0
   -6.6050   15.4630   -1.3930 O   0  0  0  0  0  0  0  0  0  0  0  0
  1  2  2  0
  2  3  2  0
  2  4  1  0
  2  5  1  0
  4  6  1  0
  5  7  2  0
  5  8  1  0
  6  9  2  0
  6 10  1  0
  7 11  1  0
  8 12  2  0
 10 13  1  0
  9 14  1  0
 13 14  2  0
 11 15  2  0
 12 15  1  0
 10 16  1  0
 10 17  1  0
 16 18  1  0
 17 18  1  0
 18 19  2  0
M  END
