mac-x0380-mac-x0373
     RDKit          3D

 23 25  0  0  0  0  0  0  0  0999 V2000
   -1.4650   14.1850   -2.7760 N   0  0  0  0  0  0  0  0  0  0  0  0
   -2.5740   15.0440   -2.7130 C   0  0  0  0  0  0  0  0  0  0  0  0
   -2.9040   15.7980   -3.6320 O   0  0  0  0  0  0  0  0  0  0  0  0
   -0.2560   14.3750   -2.0890 C   0  0  0  0  0  0  0  0  0  0  0  0
   -1.6760   13.0120   -3.5660 C   0  0  0  0  0  0  0  0  0  0  0  0
    0.1750   13.2930   -1.3860 O   0  0  0  0  0  0  0  0  0  0  0  0
    0.4700   15.3540   -2.0450 O   0  0  0  0  0  0  0  0  0  0  0  0
   -3.4560   15.0290   -1.4980 C   0  0  0  0  0  0  0  0  0  0  0  0
   -1.0100   12.7770   -4.7790 C   0  0  0  0  0  0  0  0  0  0  0  0
   -2.5920   12.0440   -3.1240 C   0  0  0  0  0  0  0  0  0  0  0  0
   -4.8470   15.0780   -1.6320 C   0  0  0  0  0  0  0  0  0  0  0  0
   -2.8850   14.9610   -0.2200 C   0  0  0  0  0  0  0  0  0  0  0  0
   -1.2540   11.6170   -5.5210 C   0  0  0  0  0  0  0  0  0  0  0  0
   -2.8380   10.8850   -3.8630 C   0  0  0  0  0  0  0  0  0  0  0  0
   -5.6650   15.0540   -0.4960 C   0  0  0  0  0  0  0  0  0  0  0  0
   -3.7000   14.9420    0.9160 C   0  0  0  0  0  0  0  0  0  0  0  0
   -2.1680   10.6720   -5.0610 C   0  0  0  0  0  0  0  0  0  0  0  0
   -5.0910   14.9860    0.7790 C   0  0  0  0  0  0  0  0  0  0  0  0
   -7.4260   15.1040   -0.7160 S   0  0  0  0  0  0  0  0  0  0  0  0
   -5.8750   14.9530    1.9460 N   0  0  0  0  0  0  0  0  0  0  0  0
   -7.8640   14.1260    0.7350 C   0  0  0  0  0  0  0  0  0  0  0  0
   -7.2050   14.6290    1.9960 C   0  0  0  0  0  0  0  0  0  0  0  0
   -7.8450   14.7580    3.0450 O   0  0  0  0  0  0  0  0  0  0  0  0
  1  2  1  0
  2  3  2  0
  1  4  1  0
  1  5  1  0
  4  6  1  0
  4  7  2  0
  2  8  1  0
  5  9  2  0
  5 10  1  0
  8 11  2  0
  8 12  1  0
  9 13  1  0
 10 14  2  0
 11 15  1  0
 12 16  2  0
 13 17  2  0
 14 17  1  0
 15 18  2  0
 16 18  1  0
 15 19  1  0
 18 20  1  0
 19 21  1  0
 20 22  1  0
 21 22  1  0
 22 23  2  0
M  END
