mac-x0231-mac-x0439
     RDKit          3D

 22 25  0  0  0  0  0  0  0  0999 V2000
    0.5530   10.9230   -2.8410 O   0  0  0  0  0  0  0  0  0  0  0  0
    1.0480   12.1410   -3.1130 C   0  0  0  0  0  0  0  0  0  0  0  0
    1.3120   12.9050   -2.1460 N   0  0  0  0  0  0  0  0  0  0  0  0
    1.2280   12.4340   -4.5520 C   0  0  0  0  0  0  0  0  0  0  0  0
    1.8590   14.2220   -2.4670 C   0  0  1  0  0  0  0  0  0  0  0  0
    1.1140   13.9160   -4.8350 C   0  0  1  0  0  0  0  0  0  0  0  0
    3.2180   14.3090   -2.1080 O   0  0  0  0  0  0  0  0  0  0  0  0
   -0.2480   14.4890   -5.3030 C   0  0  2  0  0  0  0  0  0  0  0  0
    1.8470   14.6920   -3.8670 N   0  0  0  0  0  0  0  0  0  0  0  0
   -0.7010   15.9290   -4.7050 C   0  0  2  0  0  0  0  0  0  0  0  0
    1.7990   16.1460   -4.0330 N   0  0  0  0  0  0  0  0  0  0  0  0
   -1.3850   13.5050   -5.4490 C   0  0  0  0  0  0  0  0  0  0  0  0
    0.5460   16.8500   -4.3610 C   0  0  2  0  0  0  0  0  0  0  0  0
   -1.7490   15.6530   -3.6270 C   0  0  0  0  0  0  0  0  0  0  0  0
   -2.4610   13.5620   -4.6730 C   0  0  0  0  0  0  0  0  0  0  0  0
   -1.6230   16.8120   -5.6340 C   0  0  1  0  0  0  0  0  0  0  0  0
    0.2510   17.6040   -3.2200 O   0  0  0  0  0  0  0  0  0  0  0  0
   -3.2660   16.1150   -5.9350 Cl  0  0  0  0  0  0  0  0  0  0  0  0
   -2.5480   14.5700   -3.6470 C   0  0  0  0  0  0  0  0  0  0  0  0
   -1.6380   18.2890   -5.3120 C   0  0  0  0  0  0  0  0  0  0  0  0
    0.7370   18.0110   -5.3310 C   0  0  0  0  0  0  0  0  0  0  0  0
   -0.3040   18.7120   -5.7800 C   0  0  0  0  0  0  0  0  0  0  0  0
  1  2  1  0
  2  3  2  0
  2  4  1  0
  3  5  1  0
  6  4  1  1
  5  7  1  6
  6  8  1  0
  5  9  1  0
  6  9  1  0
  8 10  1  0
  9 11  1  0
  8 12  1  1
 10 13  1  0
 11 13  1  0
 10 14  1  1
 12 15  2  0
 10 16  1  0
 13 17  1  1
 16 18  1  1
 14 19  2  0
 15 19  1  0
 16 20  1  0
 13 21  1  0
 20 22  1  0
 21 22  2  0
M  END
