mac-x0496-diamond-x0253_0_A
     RDKit          3D

 35 37  0  0  0  0  0  0  0  0999 V2000
   -9.8970   17.7880    4.7700 C   0  0  0  0  0  0  0  0  0  0  0  0
   -9.9960   16.8000    3.6760 C   0  0  0  0  0  0  0  0  0  0  0  0
  -11.0710   16.6780    2.8850 N   0  0  0  0  0  0  0  0  0  0  0  0
   -8.9860   15.9240    3.3950 N   0  0  0  0  0  0  0  0  0  0  0  0
  -10.7190   15.6480    2.0070 O   0  0  0  0  0  0  0  0  0  0  0  0
   -9.4660   15.2450    2.3780 C   0  0  0  0  0  0  0  0  0  0  0  0
   -8.8390   14.1360    1.6150 C   0  0  0  0  0  0  0  0  0  0  0  0
   -7.4310   14.3740    1.3520 N   0  0  0  0  0  0  0  0  0  0  0  0
   -6.8420   14.7120    0.1590 C   0  0  0  0  0  0  0  0  0  0  0  0
   -7.5100   14.8970   -0.8490 O   0  0  0  0  0  0  0  0  0  0  0  0
   -5.3810   14.8400    0.1160 C   0  0  0  0  0  0  0  0  0  0  0  0
   -4.7190   14.9670    1.3300 C   0  0  0  0  0  0  0  0  0  0  0  0
   -4.6870   14.8330   -1.0920 C   0  0  0  0  0  0  0  0  0  0  0  0
   -3.3410   15.0730    1.3690 C   0  0  0  0  0  0  0  0  0  0  0  0
   -3.3000   14.9470   -1.0480 C   0  0  0  0  0  0  0  0  0  0  0  0
   -2.5240   14.9450   -2.2970 C   0  0  0  0  0  0  0  0  0  0  0  0
   -2.6270   15.0620    0.1850 C   0  0  0  0  0  0  0  0  0  0  0  0
   -1.2630   14.8040   -2.5080 N   0  0  0  0  0  0  0  0  0  0  0  0
   -3.3250   15.1360   -3.3590 O   0  0  0  0  0  0  0  0  0  0  0  0
   -0.3910   14.6130   -1.3290 C   0  0  0  0  0  0  0  0  0  0  0  0
    0.8810   13.8590   -1.6970 C   0  0  0  0  0  0  0  0  0  0  0  0
    0.5820   12.4290   -1.6380 N   0  0  0  0  0  0  0  0  0  0  0  0
    0.6380   11.7570   -2.7330 C   0  0  0  0  0  0  0  0  0  0  0  0
    0.3610   10.4310   -2.7170 O   0  0  0  0  0  0  0  0  0  0  0  0
    1.0170   12.4040   -4.0830 C   0  0  0  0  0  0  0  0  0  0  0  0
    0.3530   11.7960   -5.2400 N   0  0  0  0  0  0  0  0  0  0  0  0
    1.0330   11.6320   -6.4380 C   0  0  0  0  0  0  0  0  0  0  0  0
    2.1060   12.1940   -6.6000 O   0  0  0  0  0  0  0  0  0  0  0  0
    0.4320   10.7250   -7.4730 C   0  0  0  0  0  0  0  0  0  0  0  0
   -0.5510    9.7960   -7.1250 C   0  0  0  0  0  0  0  0  0  0  0  0
    0.8420   10.7860   -8.8130 C   0  0  0  0  0  0  0  0  0  0  0  0
   -1.1150    8.9490   -8.0880 C   0  0  0  0  0  0  0  0  0  0  0  0
    0.2890    9.9490   -9.7770 C   0  0  0  0  0  0  0  0  0  0  0  0
   -2.1730    7.9580   -7.6950 C   0  0  0  0  0  0  0  0  0  0  0  0
   -0.6900    9.0310   -9.4140 C   0  0  0  0  0  0  0  0  0  0  0  0
  1  2  1  0
  2  3  2  0
  2  4  1  0
  3  5  1  0
  4  6  2  0
  5  6  1  0
  6  7  1  0
  7  8  1  0
  8  9  1  0
  9 10  2  0
  9 11  1  0
 11 12  2  0
 11 13  1  0
 12 14  1  0
 13 15  2  0
 15 16  1  0
 14 17  2  0
 15 17  1  0
 16 18  2  3
 16 19  1  0
 18 20  1  0
 20 21  1  0
 21 22  1  0
 22 23  2  3
 23 24  1  0
 23 25  1  0
 25 26  1  0
 26 27  1  0
 27 28  2  0
 27 29  1  0
 29 30  2  0
 29 31  1  0
 30 32  1  0
 31 33  2  0
 32 34  1  0
 32 35  2  0
 33 35  1  0
M  END
