mac-x0303-diamond-x0104_0_A
     RDKit          3D

 22 25  0  0  0  0  0  0  0  0999 V2000
   -8.8970   13.2640    2.2100 N   0  0  0  0  0  0  0  0  0  0  0  0
   -8.5390   14.6470    1.6270 S   0  0  0  0  0  0  0  0  0  0  0  0
   -7.8480   15.1800    3.0620 C   0  0  2  0  0  0  0  0  0  0  0  0
   -9.9720   14.6600    1.0400 O   0  0  0  0  0  0  0  0  0  0  0  0
   -7.1410   14.0970    0.7100 C   0  0  1  0  0  0  0  0  0  0  0  0
   -6.3910   15.0010    2.6740 N   0  0  0  0  0  0  0  0  0  0  0  0
   -8.0180   14.4540    4.2950 N   0  0  0  0  0  0  0  0  0  0  0  0
   -6.8400   14.2690   -0.6490 N   0  0  0  0  0  0  0  0  0  0  0  0
   -6.1890   14.8910    1.3230 N   0  0  0  0  0  0  0  0  0  0  0  0
   -6.6910   15.5020   -1.1660 O   0  0  0  0  0  0  0  0  0  0  0  0
   -5.5240   13.7410   -0.5740 C   0  0  2  0  0  0  0  0  0  0  0  0
   -5.0820   14.0980    0.8150 C   0  0  1  0  0  0  0  0  0  0  0  0
   -9.1630   14.7270    5.1450 C   0  0  0  0  0  0  0  0  0  0  0  0
   -5.3820   15.5900   -1.6650 C   0  0  0  0  0  0  0  0  0  0  0  0
   -4.6800   14.2140   -1.6830 C   0  0  0  0  0  0  0  0  0  0  0  0
   -3.7460   14.7230    0.8900 C   0  0  0  0  0  0  0  0  0  0  0  0
   -9.1800   15.0020    6.4980 C   0  0  0  0  0  0  0  0  0  0  0  0
  -10.8250   14.7910    4.7400 S   0  0  0  0  0  0  0  0  0  0  0  0
   -3.5370   14.8100   -1.5450 C   0  0  0  0  0  0  0  0  0  0  0  0
   -3.0560   15.0240   -0.1840 C   0  0  0  0  0  0  0  0  0  0  0  0
  -11.4830   15.1520    6.2640 C   0  0  0  0  0  0  0  0  0  0  0  0
  -10.3750   15.2190    7.0660 C   0  0  0  0  0  0  0  0  0  0  0  0
  1  2  1  0
  2  3  1  0
  2  4  2  0
  2  5  1  0
  3  6  1  0
  3  7  1  1
  5  8  1  6
  5  9  1  0
  6  9  1  0
  8 10  1  0
  8 11  1  0
  9 12  1  0
 11 12  1  0
  7 13  1  0
 10 14  1  0
 11 15  1  6
 12 16  1  6
 13 17  2  0
 13 18  1  0
 15 19  2  0
 16 20  2  0
 19 20  1  0
 18 21  1  0
 17 22  1  0
 21 22  2  0
M  END
