mac-x0346-diamond-x0895_0_A
     RDKit          3D

 12 12  0  0  0  0  0  0  0  0999 V2000
   -7.4470   14.1030    1.1810 O   0  0  0  0  0  0  0  0  0  0  0  0
   -7.5180   14.9300    0.0340 N   0  0  0  0  0  0  0  0  0  0  0  0
   -6.4530   14.8910   -0.8500 C   0  0  0  0  0  0  0  0  0  0  0  0
   -6.5740   14.3400   -1.9410 O   0  0  0  0  0  0  0  0  0  0  0  0
   -5.1660   15.5980   -0.3980 C   0  0  2  0  0  0  0  0  0  0  0  0
   -3.9600   15.3140   -1.3210 C   0  0  2  0  0  0  0  0  0  0  0  0
   -4.8830   15.4220    1.0720 C   0  0  0  0  0  0  0  0  0  0  0  0
   -4.4050   14.4890   -2.4020 O   0  0  0  0  0  0  0  0  0  0  0  0
   -2.6920   14.7080   -0.6980 C   0  0  0  0  0  0  0  0  0  0  0  0
   -3.6990   15.1500    1.5960 C   0  0  0  0  0  0  0  0  0  0  0  0
   -2.5160   14.9300    0.7890 C   0  0  0  0  0  0  0  0  0  0  0  0
   -1.4310   14.8920    1.3880 O   0  0  0  0  0  0  0  0  0  0  0  0
  1  2  1  0
  2  3  1  0
  3  4  2  0
  5  3  1  6
  5  6  1  0
  5  7  1  0
  6  8  1  6
  6  9  1  0
  7 10  2  0
  9 11  1  0
 10 11  1  0
 11 12  2  0
M  END
