mac-x0404-mac-x0510
     RDKit          3D

 27 30  0  0  0  0  0  0  0  0999 V2000
    1.4250   12.9280   -2.1100 O   0  0  0  0  0  0  0  0  0  0  0  0
    1.2860   12.1810   -3.2190 C   0  0  0  0  0  0  0  0  0  0  0  0
    0.6050   11.1660   -3.1720 O   0  0  0  0  0  0  0  0  0  0  0  0
    2.0370   12.7070   -4.4520 C   0  0  0  0  0  0  0  0  0  0  0  0
    1.6570   13.9570   -4.9820 O   0  0  0  0  0  0  0  0  0  0  0  0
    0.3820   14.3480   -4.7640 C   0  0  0  0  0  0  0  0  0  0  0  0
    0.0870   15.7150   -4.9790 C   0  0  0  0  0  0  0  0  0  0  0  0
   -0.5910   13.4590   -4.3450 C   0  0  0  0  0  0  0  0  0  0  0  0
   -1.2050   16.1770   -4.7470 C   0  0  0  0  0  0  0  0  0  0  0  0
   -1.8540   13.9080   -4.1040 C   0  0  0  0  0  0  0  0  0  0  0  0
    1.0470   16.6260   -5.4170 C   0  0  0  0  0  0  0  0  0  0  0  0
   -2.1550   15.2360   -4.2830 C   0  0  0  0  0  0  0  0  0  0  0  0
   -1.4740   17.5530   -4.9840 C   0  0  0  0  0  0  0  0  0  0  0  0
    0.7790   17.9690   -5.6400 C   0  0  0  0  0  0  0  0  0  0  0  0
   -3.5030   15.6830   -3.9680 C   0  0  0  0  0  0  0  0  0  0  0  0
   -0.4980   18.4350   -5.4250 C   0  0  0  0  0  0  0  0  0  0  0  0
   -4.1480   15.2910   -2.6880 N   0  0  0  0  0  0  0  0  0  0  0  0
   -3.8830   14.9960   -1.4230 C   0  0  0  0  0  0  0  0  0  0  0  0
   -2.6850   14.8980   -0.5800 C   0  0  0  0  0  0  0  0  0  0  0  0
   -4.9770   14.6930   -0.6740 N   0  0  0  0  0  0  0  0  0  0  0  0
   -5.1250   14.8500    0.6700 C   0  0  0  0  0  0  0  0  0  0  0  0
   -2.7910   14.8160    0.8130 C   0  0  0  0  0  0  0  0  0  0  0  0
   -1.3290   14.8520   -0.7840 N   0  0  0  0  0  0  0  0  0  0  0  0
   -6.2450   14.9840    1.1440 O   0  0  0  0  0  0  0  0  0  0  0  0
   -4.0100   14.8270    1.4350 N   0  0  0  0  0  0  0  0  0  0  0  0
   -1.5930   14.7250    1.4480 N   0  0  0  0  0  0  0  0  0  0  0  0
   -0.7180   14.7530    0.4610 C   0  0  0  0  0  0  0  0  0  0  0  0
  1  2  1  0
  2  3  2  0
  2  4  1  0
  4  5  1  0
  5  6  1  0
  6  7  2  0
  6  8  1  0
  7  9  1  0
  8 10  2  0
  7 11  1  0
  9 12  2  0
 10 12  1  0
  9 13  1  0
 11 14  2  0
 12 15  1  0
 13 16  2  0
 14 16  1  0
 15 17  1  0
 17 18  2  3
 18 19  1  0
 18 20  1  0
 20 21  1  0
 19 22  2  0
 19 23  1  0
 21 24  2  0
 21 25  1  0
 22 25  1  0
 22 26  1  0
 23 27  1  0
 26 27  2  0
M  END
