mac-x0138-mac-x0328
     RDKit          3D

 15 16  0  0  0  0  0  0  0  0999 V2000
   -1.9390   14.6130   -3.3440 C   0  0  0  0  0  0  0  0  0  0  0  0
   -0.4850   14.8170   -3.0470 C   0  0  0  0  0  0  0  0  0  0  0  0
    0.1740   14.0190   -2.3960 O   0  0  0  0  0  0  0  0  0  0  0  0
   -2.7140   15.4570   -2.4360 N   0  0  0  0  0  0  0  0  0  0  0  0
   -4.1560   15.1120   -2.4510 C   0  0  0  0  0  0  0  0  0  0  0  0
   -2.3420   15.3310   -1.0190 C   0  0  1  0  0  0  0  0  0  0  0  0
   -4.6160   15.3790   -1.0760 N   0  0  0  0  0  0  0  0  0  0  0  0
   -3.5500   14.6360   -0.4080 C   0  0  2  0  0  0  0  0  0  0  0  0
   -1.1490   14.5660   -0.7580 N   0  0  0  0  0  0  0  0  0  0  0  0
   -5.8800   14.6820   -0.8440 O   0  0  0  0  0  0  0  0  0  0  0  0
   -3.3070   14.6830    1.1070 C   0  0  2  0  0  0  0  0  0  0  0  0
   -0.9280   14.4810    0.6600 C   0  0  1  0  0  0  0  0  0  0  0  0
   -4.2090   15.5430    1.8440 N   0  0  0  0  0  0  0  0  0  0  0  0
    0.1950   15.3020    0.8770 N   0  0  0  0  0  0  0  0  0  0  0  0
   -1.9610   15.1310    1.4140 N   0  0  0  0  0  0  0  0  0  0  0  0
  1  2  1  0
  2  3  2  0
  1  4  1  0
  4  5  1  0
  4  6  1  0
  5  7  1  0
  6  8  1  0
  8  7  1  1
  6  9  1  6
  7 10  1  0
  8 11  1  0
  9 12  1  0
 11 13  1  1
 12 14  1  6
 11 15  1  0
 12 15  1  0
M  END
