mac-x0190-mac-x0305
     RDKit          3D

 15 16  0  0  0  0  0  0  0  0999 V2000
   -8.8930   15.5910    2.1450 O   0  0  0  0  0  0  0  0  0  0  0  0
   -8.4920   14.3560    1.5740 C   0  0  0  0  0  0  0  0  0  0  0  0
   -7.1560   14.5120    0.9150 C   0  0  0  0  0  0  0  0  0  0  0  0
   -7.0480   14.8500   -0.4070 N   0  0  0  0  0  0  0  0  0  0  0  0
   -5.9530   14.3510    1.4460 N   0  0  0  0  0  0  0  0  0  0  0  0
   -5.7110   14.8840   -0.7370 C   0  0  0  0  0  0  0  0  0  0  0  0
   -5.0250   14.5640    0.4310 C   0  0  0  0  0  0  0  0  0  0  0  0
   -5.0710   15.1560   -1.9340 C   0  0  0  0  0  0  0  0  0  0  0  0
   -3.5770   14.4960    0.4190 C   0  0  0  0  0  0  0  0  0  0  0  0
   -2.8510   14.1880    1.5610 O   0  0  0  0  0  0  0  0  0  0  0  0
   -3.6740   15.0720   -1.9470 C   0  0  0  0  0  0  0  0  0  0  0  0
   -2.9010   14.7390   -0.8160 C   0  0  0  0  0  0  0  0  0  0  0  0
   -1.3850   14.6460   -1.0130 C   0  0  0  0  0  0  0  0  0  0  0  0
   -0.7360   14.0870    0.0350 O   0  0  0  0  0  0  0  0  0  0  0  0
   -0.7250   14.9700   -1.9940 O   0  0  0  0  0  0  0  0  0  0  0  0
  1  2  1  0
  2  3  1  0
  3  4  1  0
  3  5  2  0
  4  6  1  0
  5  7  1  0
  6  7  2  0
  6  8  1  0
  7  9  1  0
  9 10  1  0
  8 11  2  0
  9 12  2  0
 11 12  1  0
 12 13  1  0
 13 14  1  0
 13 15  2  0
M  END
