mac-x0193-mac-x0567
     RDKit          3D

 26 28  0  0  0  0  0  0  0  0999 V2000
    0.3860   11.2570   -3.4550 O   0  0  0  0  0  0  0  0  0  0  0  0
    0.9800   12.3820   -3.9310 C   0  0  0  0  0  0  0  0  0  0  0  0
    1.1270   13.3460   -3.1490 N   0  0  0  0  0  0  0  0  0  0  0  0
    1.3880   12.3730   -5.3620 C   0  0  0  0  0  0  0  0  0  0  0  0
    0.2940   11.8860   -6.1590 N   0  0  0  0  0  0  0  0  0  0  0  0
    0.6030   13.1730   -1.8500 C   0  0  0  0  0  0  0  0  0  0  0  0
    0.7610   11.2260   -7.2210 C   0  0  0  0  0  0  0  0  0  0  0  0
    0.8700   14.3710   -0.9700 C   0  0  0  0  0  0  0  0  0  0  0  0
    1.9070   10.9150   -7.2210 O   0  0  0  0  0  0  0  0  0  0  0  0
   -0.0960   10.9350   -8.2360 N   0  0  0  0  0  0  0  0  0  0  0  0
    0.1980   14.0400    0.2700 N   0  0  0  0  0  0  0  0  0  0  0  0
    0.5360   10.3930   -9.4340 C   0  0  0  0  0  0  0  0  0  0  0  0
   -1.0830   14.3940    0.5210 C   0  0  0  0  0  0  0  0  0  0  0  0
    1.2250    9.0980   -9.0820 C   0  0  0  0  0  0  0  0  0  0  0  0
   -0.4100   10.1350  -10.5950 C   0  0  0  0  0  0  0  0  0  0  0  0
   -1.5880   14.5060    1.7660 N   0  0  0  0  0  0  0  0  0  0  0  0
   -2.1510   14.7110   -0.2920 C   0  0  0  0  0  0  0  0  0  0  0  0
    2.0320    8.5050  -10.2320 C   0  0  0  0  0  0  0  0  0  0  0  0
    0.3180    9.4980  -11.7880 C   0  0  0  0  0  0  0  0  0  0  0  0
   -2.8760   14.8690    1.8380 N   0  0  0  0  0  0  0  0  0  0  0  0
   -3.2630   15.0100    0.5720 C   0  0  0  0  0  0  0  0  0  0  0  0
   -2.1670   14.7420   -1.6870 C   0  0  0  0  0  0  0  0  0  0  0  0
    1.1200    8.2500  -11.4150 C   0  0  0  0  0  0  0  0  0  0  0  0
   -4.5080   15.3790    0.0510 C   0  0  0  0  0  0  0  0  0  0  0  0
   -3.4340   15.1150   -2.1850 C   0  0  0  0  0  0  0  0  0  0  0  0
   -4.5550   15.4220   -1.3550 C   0  0  0  0  0  0  0  0  0  0  0  0
  1  2  1  0
  2  3  2  3
  2  4  1  0
  4  5  1  0
  3  6  1  0
  5  7  1  0
  6  8  1  0
  7  9  2  0
  7 10  1  0
  8 11  1  0
 10 12  1  0
 11 13  1  0
 12 14  1  0
 12 15  1  0
 13 16  1  0
 13 17  2  0
 14 18  1  0
 15 19  1  0
 16 20  1  0
 17 21  1  0
 20 21  2  0
 17 22  1  0
 18 23  1  0
 19 23  1  0
 21 24  1  0
 22 25  2  0
 24 26  2  0
 25 26  1  0
M  END
