mac-x0124-mac-x0357
     RDKit          3D

 21 23  0  0  0  0  0  0  0  0999 V2000
   -1.3510   14.1090   -3.0890 C   0  0  0  0  0  0  0  0  0  0  0  0
   -0.2380   13.4280   -3.1080 C   0  0  0  0  0  0  0  0  0  0  0  0
    0.5900   13.1080   -2.0330 O   0  0  0  0  0  0  0  0  0  0  0  0
   -2.1110   14.6250   -2.1090 N   0  0  0  0  0  0  0  0  0  0  0  0
   -3.3780   15.1220   -2.2620 C   0  0  0  0  0  0  0  0  0  0  0  0
   -1.7670   14.6730   -0.7770 C   0  0  0  0  0  0  0  0  0  0  0  0
    0.0710   12.8560   -4.3680 C   0  0  0  0  0  0  0  0  0  0  0  0
   -3.8710   15.4540   -1.0450 C   0  0  0  0  0  0  0  0  0  0  0  0
   -2.8700   15.1530   -0.1020 C   0  0  0  0  0  0  0  0  0  0  0  0
   -0.5830   14.2970   -0.2350 N   0  0  0  0  0  0  0  0  0  0  0  0
    1.2820   12.6840   -4.9580 C   0  0  0  0  0  0  0  0  0  0  0  0
   -1.1110   12.4270   -5.0130 C   0  0  0  0  0  0  0  0  0  0  0  0
    2.5880   13.1160   -4.3540 C   0  0  0  0  0  0  0  0  0  0  0  0
   -2.7700   15.2250    1.2660 C   0  0  0  0  0  0  0  0  0  0  0  0
   -0.6020   14.4280    1.0960 C   0  0  0  0  0  0  0  0  0  0  0  0
   -1.1250   11.8080   -6.2280 C   0  0  0  0  0  0  0  0  0  0  0  0
    1.2140   12.0650   -6.1830 C   0  0  0  0  0  0  0  0  0  0  0  0
   -3.8310   15.6580    2.0410 N   0  0  0  0  0  0  0  0  0  0  0  0
    2.2900   11.8530   -6.8460 O   0  0  0  0  0  0  0  0  0  0  0  0
   -1.6200   14.8520    1.8560 N   0  0  0  0  0  0  0  0  0  0  0  0
    0.0760   11.6220   -6.8290 C   0  0  0  0  0  0  0  0  0  0  0  0
  1  2  2  3
  2  3  1  0
  1  4  1  0
  4  5  1  0
  4  6  1  0
  2  7  1  0
  5  8  2  0
  6  9  2  0
  8  9  1  0
  6 10  1  0
  7 11  2  0
  7 12  1  0
 11 13  1  0
  9 14  1  0
 10 15  2  0
 12 16  2  0
 11 17  1  0
 14 18  1  0
 17 19  1  0
 14 20  2  0
 15 20  1  0
 16 21  1  0
 17 21  2  0
M  END
