mac-x1493-mac-x0226
     RDKit          3D

 29 32  0  0  0  0  0  0  0  0999 V2000
   -1.2460   15.2570   -1.4950 O   0  0  0  0  0  0  0  0  0  0  0  0
   -2.2280   14.6550   -2.2820 C   0  0  0  0  0  0  0  0  0  0  0  0
   -2.2340   15.3150   -3.5400 O   0  0  0  0  0  0  0  0  0  0  0  0
   -1.6750   13.2580   -2.4290 C   0  0  0  0  0  0  0  0  0  0  0  0
   -3.5800   14.6880   -1.6200 C   0  0  0  0  0  0  0  0  0  0  0  0
   -0.5250   13.0390   -1.4450 C   0  0  0  0  0  0  0  0  0  0  0  0
   -3.6970   14.8020   -0.2330 C   0  0  0  0  0  0  0  0  0  0  0  0
   -4.7620   14.5920   -2.3390 C   0  0  0  0  0  0  0  0  0  0  0  0
    0.6690   12.5920   -2.0620 O   0  0  0  0  0  0  0  0  0  0  0  0
   -4.9560   14.7950    0.3690 C   0  0  0  0  0  0  0  0  0  0  0  0
   -5.9980   14.5870   -1.7870 N   0  0  0  0  0  0  0  0  0  0  0  0
    0.4830   11.4620   -2.7610 C   0  0  0  0  0  0  0  0  0  0  0  0
   -6.0940   14.6790   -0.4520 C   0  0  0  0  0  0  0  0  0  0  0  0
   -5.1030   14.8940    1.7560 C   0  0  0  0  0  0  0  0  0  0  0  0
    0.2300   10.3760   -2.2480 O   0  0  0  0  0  0  0  0  0  0  0  0
   -7.3450   14.6540    0.1450 C   0  0  0  0  0  0  0  0  0  0  0  0
   -6.3710   14.8660    2.3300 C   0  0  0  0  0  0  0  0  0  0  0  0
    0.6070   11.6260   -4.1900 C   0  0  0  0  0  0  0  0  0  0  0  0
   -7.4970   14.7430    1.5320 C   0  0  0  0  0  0  0  0  0  0  0  0
    1.3760   12.5430   -4.9420 C   0  0  0  0  0  0  0  0  0  0  0  0
   -0.0250   10.8610   -5.1380 C   0  0  0  0  0  0  0  0  0  0  0  0
    1.2430   12.3520   -6.2610 N   0  0  0  0  0  0  0  0  0  0  0  0
    0.3770   11.3000   -6.3710 N   0  0  0  0  0  0  0  0  0  0  0  0
   -0.0190   10.7530   -7.6220 C   0  0  0  0  0  0  0  0  0  0  0  0
   -1.1920   10.0040   -7.7480 C   0  0  0  0  0  0  0  0  0  0  0  0
    0.7690   10.9490   -8.7450 C   0  0  0  0  0  0  0  0  0  0  0  0
   -1.5430    9.4740   -8.9930 C   0  0  0  0  0  0  0  0  0  0  0  0
    0.4280   10.4290   -9.9830 C   0  0  0  0  0  0  0  0  0  0  0  0
   -0.7350    9.6850  -10.1080 C   0  0  0  0  0  0  0  0  0  0  0  0
  2  1  1  0
  2  3  1  0
  2  4  1  0
  2  5  1  0
  4  6  1  0
  5  7  2  0
  5  8  1  0
  6  9  1  0
  7 10  1  0
  8 11  2  0
  9 12  1  0
 10 13  2  0
 11 13  1  0
 10 14  1  0
 12 15  2  0
 13 16  1  0
 14 17  2  0
 12 18  1  0
 16 19  2  0
 17 19  1  0
 18 20  1  0
 18 21  2  0
 20 22  2  0
 21 23  1  0
 22 23  1  0
 23 24  1  0
 24 25  2  0
 24 26  1  0
 25 27  1  0
 26 28  2  0
 27 29  2  0
 28 29  1  0
M  END
