mac-x0137-diamond-x0662_0_A
     RDKit          3D

 34 38  0  0  0  0  0  0  0  0999 V2000
   -2.8920   12.9530   -3.7610 F   0  0  0  0  0  0  0  0  0  0  0  0
   -1.9580   13.7430   -4.3560 C   0  0  2  0  0  0  0  0  0  0  0  0
   -0.7220   12.9650   -4.7790 C   0  0  1  0  0  0  0  0  0  0  0  0
   -1.5640   14.9090   -3.4620 C   0  0  0  0  0  0  0  0  0  0  0  0
   -0.7140   14.4770   -2.3420 N   0  0  0  0  0  0  0  0  0  0  0  0
   -0.0080   12.4340   -3.5330 C   0  0  0  0  0  0  0  0  0  0  0  0
   -1.0270   11.9090   -5.8150 C   0  0  0  0  0  0  0  0  0  0  0  0
    0.4470   13.6230   -2.7040 C   0  0  0  0  0  0  0  0  0  0  0  0
   -1.1030   14.5680   -1.0220 C   0  0  0  0  0  0  0  0  0  0  0  0
    0.2090   11.0600   -6.0830 C   0  0  2  0  0  0  0  0  0  0  0  0
   -0.1680   14.3360   -0.0360 N   0  0  0  0  0  0  0  0  0  0  0  0
   -2.3340   14.8880   -0.5820 C   0  0  0  0  0  0  0  0  0  0  0  0
    1.2770   11.8430   -6.0110 O   0  0  0  0  0  0  0  0  0  0  0  0
    0.0520   10.3420   -7.4020 C   0  0  0  0  0  0  0  0  0  0  0  0
   -0.4870   14.3520    1.2860 C   0  0  0  0  0  0  0  0  0  0  0  0
   -2.5870   14.9600    0.8710 C   0  0  0  0  0  0  0  0  0  0  0  0
   -3.6060   15.2380   -1.1410 C   0  0  0  0  0  0  0  0  0  0  0  0
   -0.9200    9.3440   -7.4720 C   0  0  0  0  0  0  0  0  0  0  0  0
    0.8090   10.6140   -8.5390 C   0  0  0  0  0  0  0  0  0  0  0  0
   -1.6360   14.6430    1.7880 N   0  0  0  0  0  0  0  0  0  0  0  0
   -3.7970   15.3520    1.1490 N   0  0  0  0  0  0  0  0  0  0  0  0
   -4.3910   15.5100   -0.0910 C   0  0  0  0  0  0  0  0  0  0  0  0
   -1.1250    8.6380   -8.6490 C   0  0  0  0  0  0  0  0  0  0  0  0
    0.6190    9.9110   -9.7270 C   0  0  0  0  0  0  0  0  0  0  0  0
    1.4270   10.2300  -10.8220 N   0  0  0  0  0  0  0  0  0  0  0  0
   -0.3560    8.9210   -9.7740 C   0  0  0  0  0  0  0  0  0  0  0  0
    2.2930    9.3710  -11.4520 C   0  0  0  0  0  0  0  0  0  0  0  0
    2.5320    8.2180  -11.1120 O   0  0  0  0  0  0  0  0  0  0  0  0
    2.9720    9.9500  -12.6280 C   0  0  0  0  0  0  0  0  0  0  0  0
    2.7760   11.2270  -13.2240 C   0  0  0  0  0  0  0  0  0  0  0  0
    3.9210    9.2530  -13.2800 N   0  0  0  0  0  0  0  0  0  0  0  0
    4.3150   10.0730  -14.2640 N   0  0  0  0  0  0  0  0  0  0  0  0
    3.6610   11.2710  -14.2780 C   0  0  0  0  0  0  0  0  0  0  0  0
    5.3500    9.6210  -15.1640 C   0  0  0  0  0  0  0  0  0  0  0  0
  2  1  1  1
  2  3  1  0
  2  4  1  0
  4  5  1  0
  3  6  1  0
  3  7  1  6
  5  8  1  0
  6  8  1  0
  5  9  1  0
  7 10  1  0
  9 11  1  0
  9 12  2  0
 10 13  1  6
 10 14  1  0
 11 15  1  0
 12 16  1  0
 12 17  1  0
 14 18  2  0
 14 19  1  0
 15 20  2  0
 16 20  1  0
 16 21  2  0
 17 22  2  0
 21 22  1  0
 18 23  1  0
 19 24  2  0
 24 25  1  0
 23 26  2  0
 24 26  1  0
 25 27  1  0
 27 28  2  0
 27 29  1  0
 29 30  1  0
 29 31  2  0
 31 32  1  0
 30 33  2  0
 32 33  1  0
 32 34  1  0
M  CHG  1  13  -1
M  END
