mac-x0360-mac-x0564
     RDKit          3D

 26 29  0  0  0  0  0  0  0  0999 V2000
   -7.7730   11.6380    1.6000 Cl  0  0  0  0  0  0  0  0  0  0  0  0
   -6.3640   11.9530    0.6650 C   0  0  0  0  0  0  0  0  0  0  0  0
   -6.1160   11.1970   -0.4740 C   0  0  0  0  0  0  0  0  0  0  0  0
   -5.4900   12.9600    1.0650 C   0  0  0  0  0  0  0  0  0  0  0  0
   -4.3360   13.2310    0.3220 C   0  0  0  0  0  0  0  0  0  0  0  0
   -4.9730   11.4500   -1.2260 C   0  0  0  0  0  0  0  0  0  0  0  0
   -4.6910   10.4840   -2.6260 Cl  0  0  0  0  0  0  0  0  0  0  0  0
   -3.2490   14.5640    0.9360 S   0  0  0  0  0  0  0  0  0  0  0  0
   -4.0700   12.4640   -0.8460 C   0  0  0  0  0  0  0  0  0  0  0  0
   -1.8490   14.5850    0.0310 N   0  0  0  0  0  0  0  0  0  0  0  0
   -2.8220   14.1950    2.2130 O   0  0  0  0  0  0  0  0  0  0  0  0
   -3.8690   15.8440    0.7640 O   0  0  0  0  0  0  0  0  0  0  0  0
   -2.2720   14.6590   -1.2300 C   0  0  0  0  0  0  0  0  0  0  0  0
   -1.4770   14.4780   -2.2470 C   0  0  0  0  0  0  0  0  0  0  0  0
   -3.6340   14.8900   -1.5880 C   0  0  0  0  0  0  0  0  0  0  0  0
   -0.0590   14.2010   -2.3970 C   0  0  0  0  0  0  0  0  0  0  0  0
   -2.3130   14.5840   -3.4220 C   0  0  0  0  0  0  0  0  0  0  0  0
   -4.7760   15.1410   -0.8350 C   0  0  0  0  0  0  0  0  0  0  0  0
   -3.6890   14.8060   -2.9560 C   0  0  0  0  0  0  0  0  0  0  0  0
    0.6610   14.0310   -1.4130 O   0  0  0  0  0  0  0  0  0  0  0  0
   -1.8370   14.5000   -4.6140 N   0  0  0  0  0  0  0  0  0  0  0  0
    0.3610   14.1520   -3.6950 N   0  0  0  0  0  0  0  0  0  0  0  0
   -4.8780   14.9290   -3.6260 C   0  0  0  0  0  0  0  0  0  0  0  0
   -5.9820   15.2820   -1.4780 C   0  0  0  0  0  0  0  0  0  0  0  0
   -0.4690   14.2910   -4.6870 C   0  0  0  0  0  0  0  0  0  0  0  0
   -6.0340   15.1670   -2.8640 C   0  0  0  0  0  0  0  0  0  0  0  0
  1  2  1  0
  2  3  2  0
  2  4  1  0
  4  5  2  0
  3  6  1  0
  6  7  1  0
  5  8  1  0
  5  9  1  0
  6  9  2  0
  8 10  1  0
  8 11  2  0
  8 12  2  0
 10 13  1  0
 13 14  2  0
 13 15  1  0
 14 16  1  0
 14 17  1  0
 15 18  1  0
 15 19  2  0
 17 19  1  0
 16 20  2  0
 17 21  2  0
 16 22  1  0
 19 23  1  0
 18 24  2  0
 21 25  1  0
 22 25  2  0
 23 26  2  0
 24 26  1  0
M  END
