mac-x0188-mac-x0212
     RDKit          3D

 22 24  0  0  0  0  0  0  0  0999 V2000
    1.2500   12.9220   -5.2540 C   0  0  0  0  0  0  0  0  0  0  0  0
   -0.0730   13.3550   -4.7640 C   0  0  0  0  0  0  0  0  0  0  0  0
   -1.0430   13.5910   -5.6990 O   0  0  0  0  0  0  0  0  0  0  0  0
   -0.5990   13.6000   -3.5290 C   0  0  0  0  0  0  0  0  0  0  0  0
   -0.0550   13.5320   -2.1560 C   0  0  0  0  0  0  0  0  0  0  0  0
   -2.2220   13.9980   -5.0820 N   0  0  0  0  0  0  0  0  0  0  0  0
   -1.9620   14.0090   -3.7740 C   0  0  0  0  0  0  0  0  0  0  0  0
    1.3220   13.8960   -2.1100 O   0  0  0  0  0  0  0  0  0  0  0  0
   -0.2380   12.3050   -1.4610 O   0  0  0  0  0  0  0  0  0  0  0  0
   -0.8010   14.7270   -1.5660 C   0  0  1  0  0  0  0  0  0  0  0  0
   -2.8990   14.3690   -2.6970 C   0  0  0  0  0  0  0  0  0  0  0  0
   -0.5140   15.5920   -2.6710 O   0  0  0  0  0  0  0  0  0  0  0  0
   -4.2890   14.3700   -2.8080 C   0  0  0  0  0  0  0  0  0  0  0  0
   -2.3080   14.7200   -1.4910 C   0  0  0  0  0  0  0  0  0  0  0  0
   -5.0770   14.7010   -1.6980 C   0  0  0  0  0  0  0  0  0  0  0  0
   -3.0910   15.0430   -0.3630 C   0  0  0  0  0  0  0  0  0  0  0  0
   -4.4840   15.0240   -0.4710 C   0  0  0  0  0  0  0  0  0  0  0  0
   -5.3270   15.3190    0.6400 N   0  0  0  0  0  0  0  0  0  0  0  0
   -6.7830   14.4640    0.8510 S   0  0  0  0  0  0  0  0  0  0  0  0
   -6.2200   12.8190    1.2640 C   0  0  0  0  0  0  0  0  0  0  0  0
   -7.4360   14.9980    2.0290 O   0  0  0  0  0  0  0  0  0  0  0  0
   -7.5000   14.4140   -0.4040 O   0  0  0  0  0  0  0  0  0  0  0  0
  1  2  1  0
  2  3  1  0
  2  4  2  0
  4  5  1  0
  3  6  1  0
  4  7  1  0
  6  7  2  0
  5  8  1  0
  5  9  1  0
  5 10  1  0
  7 11  1  0
 10 12  1  6
 11 13  2  0
 10 14  1  0
 11 14  1  0
 13 15  1  0
 14 16  2  0
 15 17  2  0
 16 17  1  0
 17 18  1  0
 19 18  1  0
 19 20  1  0
 19 21  2  0
 19 22  2  0
M  END
