mac-x0132-mac-x0437
     RDKit          3D

 28 31  0  0  0  0  0  0  0  0999 V2000
   -4.2280   15.3270    1.9430 N   0  0  0  0  0  0  0  0  0  0  0  0
   -5.2180   15.0450    1.0060 C   0  0  0  0  0  0  0  0  0  0  0  0
   -6.4890   14.9310    1.4260 N   0  0  0  0  0  0  0  0  0  0  0  0
   -4.8370   14.9050   -0.3030 C   0  0  0  0  0  0  0  0  0  0  0  0
   -5.8630   14.6810   -1.2130 C   0  0  0  0  0  0  0  0  0  0  0  0
   -7.3990   14.7030    0.4740 C   0  0  0  0  0  0  0  0  0  0  0  0
   -3.4960   14.9730   -0.7180 C   0  0  0  0  0  0  0  0  0  0  0  0
   -7.1470   14.5850   -0.8400 N   0  0  0  0  0  0  0  0  0  0  0  0
   -5.5110   14.5520   -2.5490 C   0  0  0  0  0  0  0  0  0  0  0  0
   -3.1460   14.8100   -2.0500 C   0  0  0  0  0  0  0  0  0  0  0  0
   -1.6890   14.8340   -2.4590 C   0  0  0  0  0  0  0  0  0  0  0  0
   -4.1720   14.6130   -2.9750 C   0  0  0  0  0  0  0  0  0  0  0  0
   -0.9530   13.4980   -2.3400 C   0  0  0  0  0  0  0  0  0  0  0  0
    0.3330   13.6070   -1.5070 C   0  0  0  0  0  0  0  0  0  0  0  0
    1.4420   12.9300   -2.1170 O   0  0  0  0  0  0  0  0  0  0  0  0
    1.1670   12.1860   -3.2120 C   0  0  0  0  0  0  0  0  0  0  0  0
    0.6630   11.0740   -3.1710 O   0  0  0  0  0  0  0  0  0  0  0  0
    1.5570   12.9120   -4.4820 C   0  0  0  0  0  0  0  0  0  0  0  0
    0.3610   13.1660   -5.3930 C   0  0  0  0  0  0  0  0  0  0  0  0
   -0.4750   11.9970   -5.6200 N   0  0  0  0  0  0  0  0  0  0  0  0
   -1.6270   11.6890   -4.9450 C   0  0  0  0  0  0  0  0  0  0  0  0
   -0.2520   11.0110   -6.5450 C   0  0  0  0  0  0  0  0  0  0  0  0
   -2.1570   10.5650   -5.3760 N   0  0  0  0  0  0  0  0  0  0  0  0
   -1.3150   10.1310   -6.3670 C   0  0  0  0  0  0  0  0  0  0  0  0
    0.7490   10.8050   -7.4940 C   0  0  0  0  0  0  0  0  0  0  0  0
   -1.3970    8.9830   -7.1680 C   0  0  0  0  0  0  0  0  0  0  0  0
    0.6530    9.6550   -8.2850 C   0  0  0  0  0  0  0  0  0  0  0  0
   -0.4020    8.7540   -8.1270 C   0  0  0  0  0  0  0  0  0  0  0  0
  1  2  1  0
  2  3  2  0
  2  4  1  0
  4  5  2  0
  3  6  1  0
  4  7  1  0
  5  8  1  0
  6  8  2  0
  5  9  1  0
  7 10  2  0
 10 11  1  0
  9 12  2  0
 10 12  1  0
 11 13  1  0
 13 14  1  0
 14 15  1  0
 15 16  1  0
 16 17  2  0
 16 18  1  0
 18 19  1  0
 19 20  1  0
 20 21  1  0
 20 22  1  0
 21 23  2  0
 22 24  2  0
 23 24  1  0
 22 25  1  0
 24 26  1  0
 25 27  2  0
 26 28  2  0
 27 28  1  0
M  END
