mac-x0402-mac-x0357
     RDKit          3D

 21 23  0  0  0  0  0  0  0  0999 V2000
   -1.5020   14.6310   -2.9970 N   0  0  0  0  0  0  0  0  0  0  0  0
   -0.2990   13.7740   -2.8560 C   0  0  1  0  0  0  0  0  0  0  0  0
   -0.2920   13.0440   -1.6510 O   0  0  0  0  0  0  0  0  0  0  0  0
   -2.6240   14.7310   -2.1250 C   0  0  0  0  0  0  0  0  0  0  0  0
   -3.8900   14.9910   -2.6990 C   0  0  0  0  0  0  0  0  0  0  0  0
   -2.5580   14.5970   -0.7340 C   0  0  0  0  0  0  0  0  0  0  0  0
   -0.2180   12.8730   -4.0870 C   0  0  0  0  0  0  0  0  0  0  0  0
   -3.7390   14.7170    0.0280 C   0  0  0  0  0  0  0  0  0  0  0  0
   -5.0600   15.1070   -1.9290 C   0  0  0  0  0  0  0  0  0  0  0  0
    0.9270   12.7410   -4.9150 C   0  0  0  0  0  0  0  0  0  0  0  0
   -1.3780   12.1370   -4.4170 C   0  0  0  0  0  0  0  0  0  0  0  0
    2.2040   13.4770   -4.6160 C   0  0  0  0  0  0  0  0  0  0  0  0
   -4.9840   14.9640   -0.5410 C   0  0  0  0  0  0  0  0  0  0  0  0
   -3.9320   14.5970    1.7190 S   0  0  0  0  0  0  0  0  0  0  0  0
   -1.4240   11.3030   -5.5300 C   0  0  0  0  0  0  0  0  0  0  0  0
    0.8420   11.9010   -6.0340 C   0  0  0  0  0  0  0  0  0  0  0  0
    1.8790   11.7220   -6.8960 O   0  0  0  0  0  0  0  0  0  0  0  0
   -5.6200   14.8680    1.5610 C   0  0  0  0  0  0  0  0  0  0  0  0
   -6.0410   15.0440    0.3400 N   0  0  0  0  0  0  0  0  0  0  0  0
   -0.3070   11.1880   -6.3440 C   0  0  0  0  0  0  0  0  0  0  0  0
   -6.4540   14.8990    2.6190 N   0  0  0  0  0  0  0  0  0  0  0  0
  1  2  1  0
  2  3  1  1
  1  4  1  0
  4  5  2  0
  4  6  1  0
  2  7  1  0
  6  8  2  0
  5  9  1  0
  7 10  2  0
  7 11  1  0
 10 12  1  0
  8 13  1  0
  9 13  2  0
  8 14  1  0
 11 15  2  0
 10 16  1  0
 16 17  1  0
 14 18  1  0
 13 19  1  0
 18 19  2  0
 15 20  1  0
 16 20  2  0
 18 21  1  0
M  END
