mac-x0178-mac-x0283
     RDKit          3D

 26 28  0  0  0  0  0  0  0  0999 V2000
   -0.7730   18.7400   -5.0610 N   0  0  0  0  0  0  0  0  0  0  0  0
   -1.3780   17.3560   -5.7060 S   0  0  2  0  0  0  0  0  0  0  0  0
   -1.1810   17.6110   -7.0960 O   0  0  0  0  0  0  0  0  0  0  0  0
   -2.6880   17.2400   -5.0760 N   0  0  0  0  0  0  0  0  0  0  0  0
   -0.6770   15.9600   -4.8910 C   0  0  0  0  0  0  0  0  0  0  0  0
   -3.3730   15.9840   -5.4350 C   0  0  0  0  0  0  0  0  0  0  0  0
    0.3910   16.1340   -4.0170 C   0  0  0  0  0  0  0  0  0  0  0  0
   -1.2350   14.6920   -5.1080 C   0  0  0  0  0  0  0  0  0  0  0  0
   -3.5030   15.0540   -4.2250 C   0  0  0  0  0  0  0  0  0  0  0  0
    0.8930   15.0230   -3.3380 C   0  0  0  0  0  0  0  0  0  0  0  0
   -0.7320   13.5900   -4.4290 C   0  0  0  0  0  0  0  0  0  0  0  0
   -2.8260   15.5220   -2.9200 C   0  0  0  0  0  0  0  0  0  0  0  0
    0.3270   13.7530   -3.5380 C   0  0  0  0  0  0  0  0  0  0  0  0
    0.8860   12.6220   -2.7750 C   0  0  0  0  0  0  0  0  0  0  0  0
   -3.7090   15.3470   -1.7090 C   0  0  0  0  0  0  0  0  0  0  0  0
    1.8340   12.6920   -2.0300 O   0  0  0  0  0  0  0  0  0  0  0  0
    0.2230   11.4690   -2.9660 O   0  0  0  0  0  0  0  0  0  0  0  0
   -5.0670   15.1370   -1.9540 C   0  0  0  0  0  0  0  0  0  0  0  0
   -3.2230   15.3810   -0.3830 C   0  0  0  0  0  0  0  0  0  0  0  0
   -5.8920   14.9630   -0.8640 C   0  0  0  0  0  0  0  0  0  0  0  0
   -4.0980   15.1990    0.7090 C   0  0  0  0  0  0  0  0  0  0  0  0
   -7.2270   14.7470   -0.9210 O   0  0  0  0  0  0  0  0  0  0  0  0
   -5.4690   14.9820    0.4460 C   0  0  0  0  0  0  0  0  0  0  0  0
   -6.6820   14.7570    1.1690 C   0  0  0  0  0  0  0  0  0  0  0  0
   -7.7280   14.6150    0.3570 N   0  0  0  0  0  0  0  0  0  0  0  0
   -6.7730   14.7010    2.4990 N   0  0  0  0  0  0  0  0  0  0  0  0
  2  1  1  1
  2  3  2  0
  2  4  2  0
  2  5  1  0
  4  6  1  0
  5  7  2  0
  5  8  1  0
  6  9  1  0
  7 10  1  0
  8 11  2  0
  9 12  1  0
 10 13  2  0
 11 13  1  0
 13 14  1  0
 12 15  1  0
 14 16  2  0
 14 17  1  0
 15 18  2  0
 15 19  1  0
 18 20  1  0
 19 21  2  0
 20 22  1  0
 20 23  2  0
 21 23  1  0
 23 24  1  0
 22 25  1  0
 24 25  2  0
 24 26  1  0
M  END
