mac-x0193-mac-x0231
     RDKit          3D

 25 27  0  0  0  0  0  0  0  0999 V2000
    0.4000   10.8390   -3.0440 O   0  0  0  0  0  0  0  0  0  0  0  0
    0.9750   12.0380   -3.2790 C   0  0  0  0  0  0  0  0  0  0  0  0
    1.2690   12.7560   -2.3400 O   0  0  0  0  0  0  0  0  0  0  0  0
    1.1980   12.3390   -4.7650 C   0  0  1  0  0  0  0  0  0  0  0  0
    0.2840   11.5160   -5.5980 N   0  0  0  0  0  0  0  0  0  0  0  0
    1.0270   13.8450   -5.0070 C   0  0  1  0  0  0  0  0  0  0  0  0
    0.6510   11.1980   -6.8820 C   0  0  0  0  0  0  0  0  0  0  0  0
   -0.4540   14.2320   -5.0890 C   0  0  2  0  0  0  0  0  0  0  0  0
    1.8240   14.7060   -4.0720 N   0  0  0  0  0  0  0  0  0  0  0  0
    1.7170   11.5310   -7.2960 O   0  0  0  0  0  0  0  0  0  0  0  0
   -0.2960   10.4860   -7.6060 N   0  0  0  0  0  0  0  0  0  0  0  0
   -0.7900   15.5890   -4.4590 C   0  0  1  0  0  0  0  0  0  0  0  0
    1.5740   16.0910   -4.2240 N   0  0  0  0  0  0  0  0  0  0  0  0
   -1.5350   13.2280   -4.8170 C   0  0  0  0  0  0  0  0  0  0  0  0
    0.0040    9.5410   -8.7040 C   0  0  0  0  0  0  0  0  0  0  0  0
    0.3710   16.5360   -4.7540 C   0  0  0  0  0  0  0  0  0  0  0  0
   -2.1440   16.0020   -4.9760 C   0  0  0  0  0  0  0  0  0  0  0  0
   -2.8030   13.6590   -4.8670 C   0  0  0  0  0  0  0  0  0  0  0  0
    0.2880   17.5910   -5.3740 O   0  0  0  0  0  0  0  0  0  0  0  0
    1.4690    9.2460   -8.7790 C   0  0  0  0  0  0  0  0  0  0  0  0
   -0.4230   10.0630  -10.0840 C   0  0  0  0  0  0  0  0  0  0  0  0
   -3.0880   15.0550   -5.1640 C   0  0  0  0  0  0  0  0  0  0  0  0
    1.8160    8.0760   -9.6930 C   0  0  0  0  0  0  0  0  0  0  0  0
    0.5620    9.6610  -11.1990 C   0  0  0  0  0  0  0  0  0  0  0  0
    1.1240    8.2460  -11.0370 C   0  0  0  0  0  0  0  0  0  0  0  0
  1  2  1  0
  2  3  2  0
  2  4  1  0
  4  5  1  6
  4  6  1  0
  5  7  1  0
  6  8  1  0
  6  9  1  1
  7 10  2  0
  7 11  1  0
  8 12  1  0
  9 13  1  0
  8 14  1  1
 11 15  1  0
 12 16  1  0
 13 16  1  0
 12 17  1  6
 14 18  2  0
 16 19  2  0
 15 20  1  0
 15 21  1  0
 17 22  2  0
 18 22  1  0
 20 23  1  0
 21 24  1  0
 23 25  1  0
 24 25  1  0
M  END
