mac-x0417-diamond-x1015_0_A
     RDKit          3D

 19 21  0  0  0  0  0  0  0  0999 V2000
    1.2640   13.4390   -3.7060 O   0  0  0  0  0  0  0  0  0  0  0  0
    1.5690   12.2470   -4.3960 C   0  0  1  0  0  0  0  0  0  0  0  0
    0.6570   11.2690   -3.9140 O   0  0  0  0  0  0  0  0  0  0  0  0
    1.4230   12.4500   -5.9220 C   0  0  0  0  0  0  0  0  0  0  0  0
    0.1130   11.9060   -6.5640 C   0  0  1  0  0  0  0  0  0  0  0  0
   -0.4910   12.0070   -3.9290 C   0  0  1  0  0  0  0  0  0  0  0  0
    0.0630   11.8250   -8.0470 N   0  0  0  0  0  0  0  0  0  0  0  0
   -0.2460   10.4500   -6.2840 C   0  0  2  0  0  0  0  0  0  0  0  0
   -1.8870   11.6280   -3.4400 C   0  0  2  0  0  0  0  0  0  0  0  0
   -0.1660   12.9630   -2.9330 N   0  0  0  0  0  0  0  0  0  0  0  0
    0.4920    9.6750   -7.2390 O   0  0  0  0  0  0  0  0  0  0  0  0
   -1.6570   10.0240   -6.3960 C   0  0  0  0  0  0  0  0  0  0  0  0
   -2.7890   10.4940   -4.0930 C   0  0  0  0  0  0  0  0  0  0  0  0
   -2.3180   13.1360   -3.6030 C   0  0  2  0  0  0  0  0  0  0  0  0
   -1.1920   13.8300   -2.8390 C   0  0  0  0  0  0  0  0  0  0  0  0
    0.5600   10.5000   -8.3860 C   0  0  0  0  0  0  0  0  0  0  0  0
   -3.6860   13.6040   -3.1810 C   0  0  0  0  0  0  0  0  0  0  0  0
   -1.1670   14.9040   -2.2680 O   0  0  0  0  0  0  0  0  0  0  0  0
   -2.6720   10.0420   -5.5390 C   0  0  0  0  0  0  0  0  0  0  0  0
  2  1  1  1
  2  3  1  0
  2  4  1  0
  5  4  1  6
  3  6  1  0
  5  7  1  0
  5  8  1  0
  6  9  1  0
  6 10  1  1
  8 11  1  0
  8 12  1  6
  9 13  1  6
  9 14  1  0
 10 15  1  0
 14 15  1  0
  7 16  1  0
 11 16  1  0
 14 17  1  1
 15 18  2  0
 12 19  2  0
 13 19  1  0
M  END
