mac-x0178-mac-x0132
     RDKit          3D

 26 28  0  0  0  0  0  0  0  0999 V2000
   -0.6910   18.4650   -5.8890 N   0  0  0  0  0  0  0  0  0  0  0  0
   -1.6850   17.1290   -5.7480 S   0  0  2  0  0  0  0  0  0  0  0  0
   -2.4210   16.9960   -6.9640 O   0  0  0  0  0  0  0  0  0  0  0  0
   -2.4430   17.2740   -4.5340 N   0  0  0  0  0  0  0  0  0  0  0  0
   -0.9080   15.7490   -4.9930 C   0  0  0  0  0  0  0  0  0  0  0  0
   -3.2810   16.0480   -4.3290 C   0  0  0  0  0  0  0  0  0  0  0  0
    0.1590   16.0180   -4.1290 C   0  0  0  0  0  0  0  0  0  0  0  0
   -1.3690   14.4430   -5.2050 C   0  0  0  0  0  0  0  0  0  0  0  0
   -2.7230   14.8850   -3.5780 C   0  0  0  0  0  0  0  0  0  0  0  0
    0.7640   14.9690   -3.4450 C   0  0  0  0  0  0  0  0  0  0  0  0
   -0.7560   13.3970   -4.5140 C   0  0  0  0  0  0  0  0  0  0  0  0
    0.2960   13.6620   -3.6320 C   0  0  0  0  0  0  0  0  0  0  0  0
   -3.5570   14.8710   -2.3360 C   0  0  0  0  0  0  0  0  0  0  0  0
    0.9060   12.5430   -2.8890 C   0  0  0  0  0  0  0  0  0  0  0  0
   -4.9640   14.6880   -2.3420 C   0  0  0  0  0  0  0  0  0  0  0  0
   -2.8840   15.0580   -1.1560 C   0  0  0  0  0  0  0  0  0  0  0  0
    1.8630   12.6850   -2.1580 O   0  0  0  0  0  0  0  0  0  0  0  0
    0.2820   11.3740   -3.0830 O   0  0  0  0  0  0  0  0  0  0  0  0
   -5.6890   14.6900   -1.1510 C   0  0  0  0  0  0  0  0  0  0  0  0
   -3.5740   15.0730    0.0170 C   0  0  0  0  0  0  0  0  0  0  0  0
   -4.9640   14.8880    0.0190 C   0  0  0  0  0  0  0  0  0  0  0  0
   -7.0220   14.5070   -1.1370 N   0  0  0  0  0  0  0  0  0  0  0  0
   -5.6970   14.8920    1.1680 C   0  0  0  0  0  0  0  0  0  0  0  0
   -7.6220   14.5210    0.0620 C   0  0  0  0  0  0  0  0  0  0  0  0
   -5.0590   15.1100    2.3560 N   0  0  0  0  0  0  0  0  0  0  0  0
   -7.0140   14.7080    1.2330 N   0  0  0  0  0  0  0  0  0  0  0  0
  2  1  1  6
  2  3  2  0
  2  4  2  0
  2  5  1  0
  4  6  1  0
  5  7  2  0
  5  8  1  0
  6  9  1  0
  7 10  1  0
  8 11  2  0
 10 12  2  0
 11 12  1  0
  9 13  1  0
 12 14  1  0
 13 15  2  0
 13 16  1  0
 14 17  2  0
 14 18  1  0
 15 19  1  0
 16 20  2  0
 19 21  2  0
 20 21  1  0
 19 22  1  0
 21 23  1  0
 22 24  2  0
 23 25  1  0
 23 26  2  0
 24 26  1  0
M  END
