mac-x0392-mac-x0228
     RDKit          3D

 20 22  0  0  0  0  0  0  0  0999 V2000
    0.2870   13.5860    0.1010 N   0  0  0  0  0  0  0  0  0  0  0  0
   -0.9720   14.1980    0.1300 C   0  0  0  0  0  0  0  0  0  0  0  0
   -1.6800   14.4340    1.2900 C   0  0  0  0  0  0  0  0  0  0  0  0
   -1.5460   14.5840   -1.0620 C   0  0  0  0  0  0  0  0  0  0  0  0
   -0.7620   14.3160   -2.3110 C   0  0  1  0  0  0  0  0  0  0  0  0
   -2.8150   15.1930   -1.0450 C   0  0  0  0  0  0  0  0  0  0  0  0
   -2.8980   15.0170    1.3490 N   0  0  0  0  0  0  0  0  0  0  0  0
   -1.5500   14.1330   -3.4930 N   0  0  0  0  0  0  0  0  0  0  0  0
    0.1810   15.3600   -2.4770 O   0  0  0  0  0  0  0  0  0  0  0  0
   -3.4410   15.3890    0.1740 C   0  0  0  0  0  0  0  0  0  0  0  0
   -2.8290   14.1530   -3.5180 C   0  0  0  0  0  0  0  0  0  0  0  0
   -3.9140   14.3590   -2.5250 C   0  0  0  0  0  0  0  0  0  0  0  0
   -3.9360   14.0120   -1.1550 C   0  0  0  0  0  0  0  0  0  0  0  0
   -5.0130   14.9710   -3.1090 C   0  0  0  0  0  0  0  0  0  0  0  0
   -5.0990   14.3210   -0.4360 C   0  0  0  0  0  0  0  0  0  0  0  0
   -6.1540   15.2650   -2.3770 C   0  0  0  0  0  0  0  0  0  0  0  0
   -6.1770   14.9350   -1.0560 C   0  0  0  0  0  0  0  0  0  0  0  0
   -5.4450   14.0990    0.9890 C   0  0  0  0  0  0  0  0  0  0  0  0
   -7.2420   15.1630   -0.2260 O   0  0  0  0  0  0  0  0  0  0  0  0
   -6.9570   14.3100    0.9060 C   0  0  0  0  0  0  0  0  0  0  0  0
  1  2  1  0
  2  3  2  0
  2  4  1  0
  4  5  1  0
  4  6  2  0
  3  7  1  0
  5  8  1  0
  5  9  1  6
  6 10  1  0
  7 10  2  0
  8 11  2  3
 11 12  1  0
 12 13  2  0
 12 14  1  0
 13 15  1  0
 14 16  2  0
 15 17  2  0
 16 17  1  0
 15 18  1  0
 17 19  1  0
 18 20  1  0
 19 20  1  0
M  END
