mac-x0271-mac-x0137
     RDKit          3D

 24 27  0  0  0  0  0  0  0  0999 V2000
   -3.4390   15.3850   -3.0800 O   0  0  0  0  0  0  0  0  0  0  0  0
   -4.0190   15.3710   -1.7790 C   0  0  2  0  0  0  0  0  0  0  0  0
   -3.0950   14.7650   -0.6340 C   0  0  2  0  0  0  0  0  0  0  0  0
   -5.4810   14.8920   -1.9030 C   0  0  0  0  0  0  0  0  0  0  0  0
   -6.1740   14.8790   -0.5990 C   0  0  0  0  0  0  0  0  0  0  0  0
   -4.0430   14.0930    0.4440 C   0  0  0  0  0  0  0  0  0  0  0  0
   -2.4650   15.8720    0.2300 C   0  0  0  0  0  0  0  0  0  0  0  0
   -1.7060   13.9980   -0.9490 C   0  0  1  0  0  0  0  0  0  0  0  0
   -5.5100   14.5290    0.4880 C   0  0  0  0  0  0  0  0  0  0  0  0
   -7.5520   15.2470   -0.5740 O   0  0  0  0  0  0  0  0  0  0  0  0
   -1.3400   13.4700   -2.2720 N   0  0  0  0  0  0  0  0  0  0  0  0
   -0.5060   14.6940   -0.5040 N   0  0  0  0  0  0  0  0  0  0  0  0
   -1.6890   15.3060    1.3500 N   0  0  0  0  0  0  0  0  0  0  0  0
   -6.2250   14.5560    1.7350 C   0  0  0  0  0  0  0  0  0  0  0  0
   -8.3110   14.9620    0.5370 C   0  0  0  0  0  0  0  0  0  0  0  0
   -1.5430   14.3290   -3.4360 C   0  0  0  0  0  0  0  0  0  0  0  0
   -0.0090   12.8750   -2.4050 C   0  0  0  0  0  0  0  0  0  0  0  0
   -0.4430   14.7330    0.9180 C   0  0  0  0  0  0  0  0  0  0  0  0
   -9.5380   14.8940    0.5300 O   0  0  0  0  0  0  0  0  0  0  0  0
   -7.5530   14.7510    1.7810 C   0  0  0  0  0  0  0  0  0  0  0  0
   -1.7510   13.4580   -4.6730 C   0  0  2  0  0  0  0  0  0  0  0  0
    0.0210   11.9370   -3.6220 C   0  0  0  0  0  0  0  0  0  0  0  0
   -2.8540   12.6940   -4.4530 F   0  0  0  0  0  0  0  0  0  0  0  0
   -0.5550   12.5380   -4.9160 C   0  0  0  0  0  0  0  0  0  0  0  0
  2  1  1  6
  2  3  1  0
  2  4  1  0
  4  5  1  0
  3  6  1  1
  3  7  1  0
  3  8  1  0
  5  9  2  0
  6  9  1  0
  5 10  1  0
  8 11  1  6
  8 12  1  0
  7 13  1  0
  9 14  1  0
 10 15  1  0
 11 16  1  0
 11 17  1  0
 12 18  1  0
 13 18  1  0
 15 19  2  0
 14 20  2  0
 15 20  1  0
 16 21  1  0
 17 22  1  0
 21 23  1  1
 21 24  1  0
 22 24  1  0
M  END
