mac-x0137-mac-x0565
     RDKit          3D

 26 30  0  0  0  0  0  0  0  0999 V2000
   -1.1230   13.4080   -5.7040 F   0  0  0  0  0  0  0  0  0  0  0  0
   -0.7860   13.8550   -4.4620 C   0  0  2  0  0  0  0  0  0  0  0  0
    0.3380   12.9650   -3.9150 C   0  0  0  0  0  0  0  0  0  0  0  0
   -2.0570   13.7550   -3.6420 C   0  0  1  0  0  0  0  0  0  0  0  0
   -1.9850   13.0240   -2.2550 C   0  0  1  0  0  0  0  0  0  0  0  0
   -0.1470   11.5850   -3.4590 C   0  0  0  0  0  0  0  0  0  0  0  0
   -2.9800   14.9780   -3.4630 C   0  0  1  0  0  0  0  0  0  0  0  0
   -1.3050   11.6230   -2.4370 C   0  0  0  0  0  0  0  0  0  0  0  0
   -1.6150   13.6300   -0.8760 C   0  0  0  0  0  0  0  0  0  0  0  0
   -3.5180   13.1900   -1.9240 C   0  0  1  0  0  0  0  0  0  0  0  0
   -4.1220   15.0270   -4.4530 C   0  0  0  0  0  0  0  0  0  0  0  0
   -3.5810   14.7410   -2.0840 C   0  0  0  0  0  0  0  0  0  0  0  0
   -0.4660   13.3620   -0.1360 N   0  0  0  0  0  0  0  0  0  0  0  0
   -2.5150   14.4520   -0.3120 C   0  0  0  0  0  0  0  0  0  0  0  0
   -4.6130   12.5190   -2.7680 C   0  0  0  0  0  0  0  0  0  0  0  0
   -5.3030   14.3850   -4.3330 C   0  0  0  0  0  0  0  0  0  0  0  0
   -0.3990   13.8620    1.1570 C   0  0  0  0  0  0  0  0  0  0  0  0
   -2.3110   14.9940    1.0320 C   0  0  0  0  0  0  0  0  0  0  0  0
   -3.7850   15.0070   -0.6790 C   0  0  0  0  0  0  0  0  0  0  0  0
   -5.7590   13.4560   -3.2160 C   0  0  2  0  0  0  0  0  0  0  0  0
   -6.5430   14.0450   -2.0070 C   0  0  0  0  0  0  0  0  0  0  0  0
   -1.2320   14.6460    1.7570 N   0  0  0  0  0  0  0  0  0  0  0  0
   -3.2880   15.7680    1.4060 N   0  0  0  0  0  0  0  0  0  0  0  0
   -4.1590   15.7560    0.3440 C   0  0  0  0  0  0  0  0  0  0  0  0
   -5.9010   14.0710   -0.8170 O   0  0  0  0  0  0  0  0  0  0  0  0
   -7.6900   14.4640   -2.0880 O   0  0  0  0  0  0  0  0  0  0  0  0
  2  1  1  6
  2  3  1  0
  4  2  1  1
  4  5  1  0
  3  6  1  0
  4  7  1  0
  5  8  1  0
  6  8  1  0
  5  9  1  1
  5 10  1  0
  7 11  1  6
  7 12  1  0
 10 12  1  0
  9 13  1  0
  9 14  2  0
 10 15  1  6
 11 16  2  0
 13 17  1  0
 14 18  1  0
 14 19  1  0
 15 20  1  0
 16 20  1  0
 20 21  1  1
 17 22  2  0
 18 22  1  0
 18 23  2  0
 19 24  2  0
 23 24  1  0
 21 25  1  0
 21 26  2  0
M  END
