mac-x0565-mac-x0348
     RDKit          3D

 27 30  0  0  0  0  0  0  0  0999 V2000
   -5.7520   15.1350    1.0120 O   0  0  0  0  0  0  0  0  0  0  0  0
   -6.2440   15.0370   -0.2320 C   0  0  0  0  0  0  0  0  0  0  0  0
   -7.4370   15.1110   -0.4670 O   0  0  0  0  0  0  0  0  0  0  0  0
   -5.1740   14.8210   -1.2090 C   0  0  0  0  0  0  0  0  0  0  0  0
   -3.8810   14.5200   -0.7690 C   0  0  0  0  0  0  0  0  0  0  0  0
   -5.4830   14.9140   -2.5810 C   0  0  0  0  0  0  0  0  0  0  0  0
   -2.9330   14.3100   -1.7260 C   0  0  0  0  0  0  0  0  0  0  0  0
   -4.4970   14.6970   -3.5350 C   0  0  0  0  0  0  0  0  0  0  0  0
   -3.2390   14.3940   -3.0710 C   0  0  0  0  0  0  0  0  0  0  0  0
   -1.6180   14.0040   -1.5210 O   0  0  0  0  0  0  0  0  0  0  0  0
   -2.1370   14.1380   -3.8090 O   0  0  0  0  0  0  0  0  0  0  0  0
   -1.2470   14.5550   -2.7740 C   0  0  2  0  0  0  0  0  0  0  0  0
    0.1890   14.5420   -3.2450 C   0  0  1  0  0  0  0  0  0  0  0  0
    0.7290   13.1840   -3.6890 C   0  0  0  0  0  0  0  0  0  0  0  0
    0.0740   15.6970   -4.1740 C   0  0  0  0  0  0  0  0  0  0  0  0
    0.6480   12.2080   -2.5460 C   0  0  0  0  0  0  0  0  0  0  0  0
    0.9790   16.6300   -4.4950 C   0  0  0  0  0  0  0  0  0  0  0  0
   -1.1200   16.0130   -4.8750 C   0  0  0  0  0  0  0  0  0  0  0  0
    0.6770   12.5000   -1.3600 O   0  0  0  0  0  0  0  0  0  0  0  0
    0.5330   10.9270   -2.9260 O   0  0  0  0  0  0  0  0  0  0  0  0
    0.4090   17.5120   -5.3610 N   0  0  0  0  0  0  0  0  0  0  0  0
   -0.8750   17.1670   -5.5920 C   0  0  0  0  0  0  0  0  0  0  0  0
   -2.3900   15.4160   -4.9520 C   0  0  0  0  0  0  0  0  0  0  0  0
    1.0480   18.6480   -5.9430 C   0  0  0  0  0  0  0  0  0  0  0  0
   -3.3610   16.0020   -5.7230 C   0  0  0  0  0  0  0  0  0  0  0  0
   -1.8370   17.7660   -6.3640 C   0  0  0  0  0  0  0  0  0  0  0  0
   -3.0630   17.1590   -6.3970 C   0  0  0  0  0  0  0  0  0  0  0  0
  1  2  1  0
  2  3  2  0
  2  4  1  0
  4  5  2  0
  4  6  1  0
  5  7  1  0
  6  8  2  0
  7  9  2  0
  8  9  1  0
  7 10  1  0
  9 11  1  0
 12 10  1  1
 11 12  1  0
 12 13  1  0
 13 14  1  6
 13 15  1  0
 14 16  1  0
 15 17  2  0
 15 18  1  0
 16 19  2  0
 16 20  1  0
 17 21  1  0
 18 22  2  0
 21 22  1  0
 18 23  1  0
 21 24  1  0
 23 25  2  0
 22 26  1  0
 25 27  1  0
 26 27  2  0
M  END
