mac-x0546-diamond-x0471_0_A
     RDKit          3D

 33 36  0  0  0  0  0  0  0  0999 V2000
   -4.3920   15.3770   -6.2850 C   0  0  0  0  0  0  0  0  0  0  0  0
   -3.6070   15.7370   -5.1060 N   0  0  0  0  0  0  0  0  0  0  0  0
   -4.0570   14.8840   -4.0000 C   0  0  0  0  0  0  0  0  0  0  0  0
   -2.2420   15.9130   -5.2410 C   0  0  0  0  0  0  0  0  0  0  0  0
   -3.1130   14.9610   -2.8000 C   0  0  0  0  0  0  0  0  0  0  0  0
   -1.4540   14.8300   -5.1020 C   0  0  0  0  0  0  0  0  0  0  0  0
   -1.5920   17.2130   -5.5310 C   0  0  0  0  0  0  0  0  0  0  0  0
    0.0080   14.9060   -5.2450 C   0  0  1  0  0  0  0  0  0  0  0  0
   -0.2780   17.4360   -5.3310 C   0  0  0  0  0  0  0  0  0  0  0  0
   -3.8660   14.9300   -1.5110 C   0  0  0  0  0  0  0  0  0  0  0  0
    0.4350   16.2700   -4.7900 C   0  0  0  0  0  0  0  0  0  0  0  0
    0.9190   14.1230   -4.3920 C   0  0  0  0  0  0  0  0  0  0  0  0
   -5.2410   14.7850   -1.6480 C   0  0  0  0  0  0  0  0  0  0  0  0
   -3.2700   15.0260   -0.2410 C   0  0  0  0  0  0  0  0  0  0  0  0
    0.9260   12.6370   -4.3700 C   0  0  0  0  0  0  0  0  0  0  0  0
    1.3860   16.3010   -3.9370 N   0  0  0  0  0  0  0  0  0  0  0  0
    1.6850   14.9770   -3.7110 C   0  0  0  0  0  0  0  0  0  0  0  0
   -5.9870   14.7220   -0.5050 C   0  0  0  0  0  0  0  0  0  0  0  0
   -4.0560   14.9670    0.9170 C   0  0  0  0  0  0  0  0  0  0  0  0
    0.7840   12.1130   -2.9580 C   0  0  0  0  0  0  0  0  0  0  0  0
   -7.3270   14.5740   -0.3230 N   0  0  0  0  0  0  0  0  0  0  0  0
   -5.4500   14.8050    0.7660 C   0  0  0  0  0  0  0  0  0  0  0  0
    1.0620   12.6970   -1.9290 O   0  0  0  0  0  0  0  0  0  0  0  0
    0.2910   10.8620   -2.9010 O   0  0  0  0  0  0  0  0  0  0  0  0
   -7.5710   14.5610    1.0210 C   0  0  0  0  0  0  0  0  0  0  0  0
   -6.4490   14.7030    1.7040 N   0  0  0  0  0  0  0  0  0  0  0  0
   -8.9490   14.4010    1.5470 C   0  0  0  0  0  0  0  0  0  0  0  0
   -8.8990   14.1680    2.9720 N   0  0  0  0  0  0  0  0  0  0  0  0
   -9.2060   15.2040    3.8220 C   0  0  0  0  0  0  0  0  0  0  0  0
   -9.4560   16.3240    3.3880 O   0  0  0  0  0  0  0  0  0  0  0  0
   -9.2510   14.8560    5.3080 C   0  0  0  0  0  0  0  0  0  0  0  0
   -9.6720   13.4050    5.5250 C   0  0  0  0  0  0  0  0  0  0  0  0
   -7.9260   15.1680    5.9900 C   0  0  0  0  0  0  0  0  0  0  0  0
  1  2  1  0
  2  3  1  0
  2  4  1  0
  3  5  1  0
  4  6  2  0
  4  7  1  0
  8  6  1  1
  7  9  2  0
  5 10  1  0
  8 11  1  0
  9 11  1  0
  8 12  1  0
 10 13  2  0
 10 14  1  0
 12 15  1  0
 11 16  2  0
 12 17  2  0
 16 17  1  0
 13 18  1  0
 14 19  2  0
 15 20  1  0
 18 21  1  0
 18 22  2  0
 19 22  1  0
 20 23  2  0
 20 24  1  0
 21 25  1  0
 22 26  1  0
 25 26  2  0
 25 27  1  0
 27 28  1  0
 28 29  1  0
 29 30  2  0
 29 31  1  0
 31 32  1  0
 31 33  1  0
M  END
