mac-x0451-mac-x0417
     RDKit          3D

 26 29  0  0  0  0  0  0  0  0999 V2000
   -6.6420   14.7330    2.5670 N   0  0  0  0  0  0  0  0  0  0  0  0
   -5.7880   14.7900    1.5270 C   0  0  0  0  0  0  0  0  0  0  0  0
   -6.1930   14.9560    0.2970 N   0  0  0  0  0  0  0  0  0  0  0  0
   -4.0930   14.6540    1.7340 S   0  0  0  0  0  0  0  0  0  0  0  0
   -5.1040   14.9870   -0.5540 C   0  0  0  0  0  0  0  0  0  0  0  0
   -3.8670   14.8330    0.0550 C   0  0  0  0  0  0  0  0  0  0  0  0
   -5.1480   15.1580   -1.9480 C   0  0  0  0  0  0  0  0  0  0  0  0
   -2.6660   14.8340   -0.6570 C   0  0  0  0  0  0  0  0  0  0  0  0
   -3.9470   15.1650   -2.6770 C   0  0  0  0  0  0  0  0  0  0  0  0
   -2.7120   15.0040   -2.0380 C   0  0  0  0  0  0  0  0  0  0  0  0
   -1.5950   15.0350   -2.8430 O   0  0  0  0  0  0  0  0  0  0  0  0
   -1.5780   14.6820   -4.2270 C   0  0  0  0  0  0  0  0  0  0  0  0
   -0.2310   14.0550   -4.6570 C   0  0  0  0  0  0  0  0  0  0  0  0
   -0.1340   12.5310   -4.4650 C   0  0  2  0  0  0  0  0  0  0  0  0
    0.6820   12.0300   -3.2840 C   0  0  0  0  0  0  0  0  0  0  0  0
    0.0100   11.6640   -5.6720 C   0  0  0  0  0  0  0  0  0  0  0  0
    1.4040   12.9680   -2.6340 O   0  0  0  0  0  0  0  0  0  0  0  0
    0.6920   10.8680   -2.9150 O   0  0  0  0  0  0  0  0  0  0  0  0
    1.0550   11.7570   -6.5100 N   0  0  0  0  0  0  0  0  0  0  0  0
   -0.8890   10.6620   -6.0810 C   0  0  0  0  0  0  0  0  0  0  0  0
    0.8280   10.7960   -7.4940 O   0  0  0  0  0  0  0  0  0  0  0  0
   -0.3350   10.1440   -7.2290 C   0  0  0  0  0  0  0  0  0  0  0  0
   -2.1020   10.1420   -5.6050 C   0  0  0  0  0  0  0  0  0  0  0  0
   -0.9100    9.1150   -7.9690 C   0  0  0  0  0  0  0  0  0  0  0  0
   -2.7080    9.1090   -6.3210 C   0  0  0  0  0  0  0  0  0  0  0  0
   -2.1230    8.6030   -7.4840 C   0  0  0  0  0  0  0  0  0  0  0  0
  1  2  1  0
  2  3  2  0
  2  4  1  0
  3  5  1  0
  4  6  1  0
  5  6  2  0
  5  7  1  0
  6  8  1  0
  7  9  2  0
  8 10  2  0
  9 10  1  0
 10 11  1  0
 11 12  1  0
 12 13  1  0
 14 13  1  6
 14 15  1  0
 14 16  1  0
 15 17  1  0
 15 18  2  0
 16 19  2  0
 16 20  1  0
 19 21  1  0
 20 22  2  0
 21 22  1  0
 20 23  1  0
 22 24  1  0
 23 25  2  0
 24 26  2  0
 25 26  1  0
M  END
