mac-x0283-mac-x0337
     RDKit          3D

 21 23  0  0  0  0  0  0  0  0999 V2000
   -6.8930   14.6000    2.4200 N   0  0  0  0  0  0  0  0  0  0  0  0
   -7.0260   14.7310    1.0740 C   0  0  0  0  0  0  0  0  0  0  0  0
   -8.2110   14.6410    0.4740 N   0  0  0  0  0  0  0  0  0  0  0  0
   -6.0030   14.9880    0.1160 C   0  0  0  0  0  0  0  0  0  0  0  0
   -7.9800   14.8350   -0.8730 O   0  0  0  0  0  0  0  0  0  0  0  0
   -6.6660   15.0410   -1.0870 C   0  0  0  0  0  0  0  0  0  0  0  0
   -4.6460   15.1830    0.0260 C   0  0  0  0  0  0  0  0  0  0  0  0
   -3.7580   15.1450    1.0240 N   0  0  0  0  0  0  0  0  0  0  0  0
   -6.0800   15.2680   -2.3260 C   0  0  0  0  0  0  0  0  0  0  0  0
   -4.0200   15.4210   -1.1860 C   0  0  0  0  0  0  0  0  0  0  0  0
   -2.6420   14.2910    0.1110 S   0  0  0  0  0  0  0  0  0  0  0  0
   -4.7140   15.4620   -2.3500 C   0  0  0  0  0  0  0  0  0  0  0  0
   -2.2370   15.0570   -1.0540 O   0  0  0  0  0  0  0  0  0  0  0  0
   -1.6760   13.8010    1.0330 O   0  0  0  0  0  0  0  0  0  0  0  0
   -3.6530   12.9590   -0.5830 C   0  0  0  0  0  0  0  0  0  0  0  0
   -3.1950   12.2710   -1.7180 C   0  0  0  0  0  0  0  0  0  0  0  0
   -4.8830   12.6010   -0.0100 C   0  0  0  0  0  0  0  0  0  0  0  0
   -3.9540   11.2300   -2.2610 C   0  0  0  0  0  0  0  0  0  0  0  0
   -5.6380   11.5590   -0.5650 C   0  0  0  0  0  0  0  0  0  0  0  0
   -5.1780   10.8620   -1.6890 C   0  0  0  0  0  0  0  0  0  0  0  0
   -5.9830    9.7340   -2.2640 C   0  0  0  0  0  0  0  0  0  0  0  0
  1  2  1  0
  2  3  2  0
  2  4  1  0
  3  5  1  0
  4  6  2  0
  5  6  1  0
  4  7  1  0
  7  8  1  0
  6  9  1  0
  7 10  2  0
 11  8  1  0
  9 12  2  0
 10 12  1  0
 11 13  2  0
 11 14  2  0
 11 15  1  0
 15 16  2  0
 15 17  1  0
 16 18  1  0
 17 19  2  0
 18 20  2  0
 19 20  1  0
 20 21  1  0
M  END
