mac-x0472-diamond-x1018_0_A
     RDKit          3D

 24 27  0  0  0  0  0  0  0  0999 V2000
   -4.8660   14.8290   -4.1090 O   0  0  0  0  0  0  0  0  0  0  0  0
   -3.6950   14.1890   -3.5660 S   0  0  0  0  0  0  0  0  0  0  0  0
   -2.4830   14.0390   -4.3320 O   0  0  0  0  0  0  0  0  0  0  0  0
   -4.2350   12.6060   -2.9140 C   0  0  0  0  0  0  0  0  0  0  0  0
   -3.3710   15.0870   -2.1260 N   0  0  0  0  0  0  0  0  0  0  0  0
   -3.3490   11.5290   -2.8520 C   0  0  0  0  0  0  0  0  0  0  0  0
   -5.5630   12.4570   -2.4590 C   0  0  0  0  0  0  0  0  0  0  0  0
   -3.1690   14.2100   -0.9460 N   0  0  0  0  0  0  0  0  0  0  0  0
   -4.6390   15.6240   -1.8760 N   0  0  0  0  0  0  0  0  0  0  0  0
   -3.7900   10.3100   -2.3430 C   0  0  0  0  0  0  0  0  0  0  0  0
   -5.9900   11.2320   -1.9480 C   0  0  0  0  0  0  0  0  0  0  0  0
   -3.1720   14.6600    0.2260 C   0  0  0  0  0  0  0  0  0  0  0  0
   -5.3500   14.5440   -1.3680 N   0  0  0  0  0  0  0  0  0  0  0  0
   -4.4120   13.5100   -0.8520 C   0  0  2  0  0  0  0  0  0  0  0  0
   -5.1060   10.1640   -1.8950 C   0  0  0  0  0  0  0  0  0  0  0  0
   -2.3610   14.3440    1.1690 N   0  0  0  0  0  0  0  0  0  0  0  0
   -4.4500   15.7400    0.6020 S   0  0  0  0  0  0  0  0  0  0  0  0
   -6.5960   14.8190   -0.8650 N   0  0  0  0  0  0  0  0  0  0  0  0
   -4.7390   13.2670    0.6150 C   0  0  0  0  0  0  0  0  0  0  0  0
   -3.8550   15.6760    2.1430 C   0  0  0  0  0  0  0  0  0  0  0  0
   -2.7830   14.9370    2.2900 N   0  0  0  0  0  0  0  0  0  0  0  0
   -6.8420   14.4110    0.3380 C   0  0  0  0  0  0  0  0  0  0  0  0
   -5.8740   13.6870    1.1930 C   0  0  0  0  0  0  0  0  0  0  0  0
   -8.4290   14.7420    0.9440 Cl  0  0  0  0  0  0  0  0  0  0  0  0
  1  2  2  0
  2  3  2  0
  2  4  1  0
  2  5  1  0
  4  6  2  0
  4  7  1  0
  5  8  1  0
  5  9  1  0
  6 10  1  0
  7 11  2  0
  8 12  1  0
  9 13  1  0
  8 14  1  0
 13 14  1  0
 10 15  2  0
 11 15  1  0
 12 16  2  0
 12 17  1  0
 13 18  1  0
 14 19  1  1
 17 20  1  0
 16 21  1  0
 20 21  2  0
 18 22  2  0
 19 23  2  0
 22 23  1  0
 22 24  1  0
M  END
