mac-x0572-diamond-x0766_0_A
     RDKit          3D

 25 28  0  0  0  0  0  0  0  0999 V2000
   -7.9840   14.7850    3.2390 C   0  0  0  0  0  0  0  0  0  0  0  0
   -7.1670   14.3460    2.0190 C   0  0  2  0  0  0  0  0  0  0  0  0
   -5.8410   14.9730    2.0890 N   0  0  0  0  0  0  0  0  0  0  0  0
   -7.9110   14.5930    0.6930 C   0  0  2  0  0  0  0  0  0  0  0  0
   -9.0630   13.7670    0.5820 O   0  0  0  0  0  0  0  0  0  0  0  0
   -6.9840   14.3510   -0.5080 C   0  0  0  0  0  0  0  0  0  0  0  0
   -5.2010   15.2700    0.8100 C   0  0  2  0  0  0  0  0  0  0  0  0
   -7.4770   14.2370   -1.6280 O   0  0  0  0  0  0  0  0  0  0  0  0
   -5.4750   14.2800   -0.2820 C   0  0  2  0  0  0  0  0  0  0  0  0
   -3.8310   15.7810    1.0060 C   0  0  0  0  0  0  0  0  0  0  0  0
   -2.9070   15.6540    0.0820 C   0  0  0  0  0  0  0  0  0  0  0  0
   -4.7290   14.7950   -1.4990 C   0  0  0  0  0  0  0  0  0  0  0  0
   -3.2330   14.9260   -1.1880 C   0  0  1  0  0  0  0  0  0  0  0  0
   -2.4580   15.3700   -2.4270 C   0  0  0  0  0  0  0  0  0  0  0  0
   -2.6260   13.6020   -0.9270 C   0  0  0  0  0  0  0  0  0  0  0  0
   -1.0810   14.7480   -2.2210 C   0  0  1  0  0  0  0  0  0  0  0  0
   -1.4280   13.5010   -1.4830 C   0  0  0  0  0  0  0  0  0  0  0  0
   -0.3260   14.6160   -3.5330 C   0  0  2  0  0  0  0  0  0  0  0  0
    0.1620   13.2220   -3.9800 C   0  0  2  0  0  0  0  0  0  0  0  0
    0.9160   15.4720   -3.5160 C   0  0  0  0  0  0  0  0  0  0  0  0
    0.5540   12.2950   -2.8530 C   0  0  0  0  0  0  0  0  0  0  0  0
    1.3650   13.5090   -4.8890 C   0  0  0  0  0  0  0  0  0  0  0  0
    1.7170   14.9780   -4.6710 C   0  0  0  0  0  0  0  0  0  0  0  0
    1.3600   12.5150   -1.9740 O   0  0  0  0  0  0  0  0  0  0  0  0
   -0.1090   11.1220   -2.8860 O   0  0  0  0  0  0  0  0  0  0  0  0
  2  1  1  1
  2  3  1  0
  2  4  1  0
  4  5  1  6
  4  6  1  0
  3  7  1  0
  6  8  2  0
  6  9  1  0
  7  9  1  0
  7 10  1  1
 10 11  2  0
  9 12  1  6
 13 11  1  1
 12 13  1  0
 13 14  1  0
 13 15  1  0
 16 14  1  6
 15 17  2  0
 16 17  1  0
 16 18  1  0
 18 19  1  0
 18 20  1  1
 19 21  1  1
 19 22  1  0
 20 23  1  0
 22 23  1  0
 21 24  2  0
 21 25  1  0
M  END
