mac-x0305-mac-x0555
     RDKit          3D

 16 17  0  0  0  0  0  0  0  0999 V2000
    0.4210   13.1970   -0.4140 O   0  0  0  0  0  0  0  0  0  0  0  0
   -0.2920   13.9820   -1.2750 C   0  0  0  0  0  0  0  0  0  0  0  0
    0.2580   14.5140   -2.2320 O   0  0  0  0  0  0  0  0  0  0  0  0
   -1.7760   14.0640   -0.9110 C   0  0  1  0  0  0  0  0  0  0  0  0
   -2.0340   14.5810    0.5220 C   0  0  2  0  0  0  0  0  0  0  0  0
   -2.5790   14.7860   -1.9450 N   0  0  0  0  0  0  0  0  0  0  0  0
   -1.0810   14.2230    1.5320 O   0  0  0  0  0  0  0  0  0  0  0  0
   -3.4020   14.0440    0.8480 C   0  0  0  0  0  0  0  0  0  0  0  0
   -3.8320   15.3320   -1.3750 C   0  0  0  0  0  0  0  0  0  0  0  0
   -4.4570   14.5140   -0.1970 C   0  0  2  0  0  0  0  0  0  0  0  0
   -5.4050   15.2940    0.6870 C   0  0  0  0  0  0  0  0  0  0  0  0
   -5.3760   13.4330   -0.8440 C   0  0  0  0  0  0  0  0  0  0  0  0
   -6.4770   14.3680    1.2970 C   0  0  1  0  0  0  0  0  0  0  0  0
   -6.7570   13.9360   -1.1010 N   0  0  0  0  0  0  0  0  0  0  0  0
   -7.0410   14.8070    2.5750 N   0  0  0  0  0  0  0  0  0  0  0  0
   -7.4790   14.1450    0.1630 C   0  0  0  0  0  0  0  0  0  0  0  0
  1  2  1  0
  2  3  2  0
  4  2  1  6
  4  5  1  0
  4  6  1  0
  5  7  1  1
  5  8  1  0
  6  9  1  0
 10  8  1  1
  9 10  1  0
 10 11  1  0
 10 12  1  0
 11 13  1  0
 12 14  1  0
 13 15  1  1
 13 16  1  0
 14 16  1  0
M  END
