mac-x0437-mac-x0584
     RDKit          3D

 32 37  0  0  0  0  0  0  0  0999 V2000
    2.3340   12.7840   -2.6820 O   0  0  0  0  0  0  0  0  0  0  0  0
    1.9230   12.0780   -3.8290 C   0  0  0  0  0  0  0  0  0  0  0  0
    2.5990   10.8600   -3.8950 O   0  0  0  0  0  0  0  0  0  0  0  0
    2.0010   12.8360   -5.1370 C   0  0  0  0  0  0  0  0  0  0  0  0
    0.4780   11.7830   -3.7510 C   0  0  1  0  0  0  0  0  0  0  0  0
    0.6010   13.1850   -5.7150 C   0  0  0  0  0  0  0  0  0  0  0  0
   -0.0150   10.9120   -2.5910 C   0  0  0  0  0  0  0  0  0  0  0  0
   -0.6010   12.8450   -3.4090 C   0  0  1  0  0  0  0  0  0  0  0  0
   -0.3900   12.1290   -5.9600 N   0  0  0  0  0  0  0  0  0  0  0  0
   -0.8450   12.0840   -2.0890 C   0  0  0  0  0  0  0  0  0  0  0  0
   -0.3990   14.3630   -3.4110 C   0  0  1  0  0  0  0  0  0  0  0  0
   -1.5940   11.9560   -5.3070 C   0  0  0  0  0  0  0  0  0  0  0  0
   -0.3000   11.1240   -6.8810 C   0  0  0  0  0  0  0  0  0  0  0  0
   -0.6640   15.0290   -4.7920 C   0  0  0  0  0  0  0  0  0  0  0  0
   -1.4330   14.9500   -2.6040 N   0  0  0  0  0  0  0  0  0  0  0  0
   -2.2650   10.9140   -5.7460 N   0  0  0  0  0  0  0  0  0  0  0  0
   -1.4750   10.3860   -6.7250 C   0  0  0  0  0  0  0  0  0  0  0  0
    0.6730   10.7940   -7.8160 C   0  0  0  0  0  0  0  0  0  0  0  0
   -2.6560   15.0720   -3.4260 C   0  0  0  0  0  0  0  0  0  0  0  0
   -2.1550   15.3530   -4.8340 C   0  0  0  0  0  0  0  0  0  0  0  0
   -1.5480   14.8650   -1.2340 C   0  0  0  0  0  0  0  0  0  0  0  0
   -1.7020    9.2580   -7.5340 C   0  0  0  0  0  0  0  0  0  0  0  0
    0.4400    9.6700   -8.6150 C   0  0  0  0  0  0  0  0  0  0  0  0
   -0.4230   14.6500   -0.4680 N   0  0  0  0  0  0  0  0  0  0  0  0
   -2.6900   15.0110   -0.5620 C   0  0  0  0  0  0  0  0  0  0  0  0
   -0.7260    8.9120   -8.4810 C   0  0  0  0  0  0  0  0  0  0  0  0
   -0.4810   14.5920    0.8930 C   0  0  0  0  0  0  0  0  0  0  0  0
   -2.6700   14.9550    0.9130 C   0  0  0  0  0  0  0  0  0  0  0  0
   -4.0570   15.2570   -0.8740 C   0  0  0  0  0  0  0  0  0  0  0  0
   -1.5320   14.7240    1.6240 N   0  0  0  0  0  0  0  0  0  0  0  0
   -3.8450   15.1750    1.4150 N   0  0  0  0  0  0  0  0  0  0  0  0
   -4.6630   15.3430    0.3120 C   0  0  0  0  0  0  0  0  0  0  0  0
  2  1  1  0
  2  3  1  0
  2  4  1  0
  5  2  1  1
  4  6  1  0
  5  7  1  0
  5  8  1  0
  6  9  1  0
  7 10  1  0
  8 10  1  1
  8 11  1  0
  9 12  1  0
  9 13  1  0
 11 14  1  6
 11 15  1  0
 12 16  2  0
 13 17  2  0
 16 17  1  0
 13 18  1  0
 15 19  1  0
 14 20  1  0
 19 20  1  0
 15 21  1  0
 17 22  1  0
 18 23  2  0
 21 24  1  0
 21 25  2  0
 22 26  2  0
 23 26  1  0
 24 27  1  0
 25 28  1  0
 25 29  1  0
 27 30  2  0
 28 30  1  0
 28 31  2  0
 29 32  2  0
 31 32  1  0
M  END
