mac-x0357-diamond-x0711_0_A
     RDKit          3D

 23 24  0  0  0  0  0  0  0  0999 V2000
    2.3480   12.9510   -4.6220 C   0  0  0  0  0  0  0  0  0  0  0  0
    1.0160   12.3250   -4.9690 C   0  0  0  0  0  0  0  0  0  0  0  0
    0.8390   11.7360   -6.2180 C   0  0  0  0  0  0  0  0  0  0  0  0
   -0.0840   12.3040   -4.0940 C   0  0  0  0  0  0  0  0  0  0  0  0
    1.8750   11.7370   -7.0620 O   0  0  0  0  0  0  0  0  0  0  0  0
   -0.0830   12.9210   -2.7410 C   0  0  2  0  0  0  0  0  0  0  0  0
   -1.2880   11.6980   -4.4990 C   0  0  0  0  0  0  0  0  0  0  0  0
   -0.3540   11.1450   -6.6190 C   0  0  0  0  0  0  0  0  0  0  0  0
   -0.7830   14.2990   -2.9200 C   0  0  2  0  0  0  0  0  0  0  0  0
    1.2550   13.0270   -2.1890 O   0  0  0  0  0  0  0  0  0  0  0  0
   -1.4260   11.1230   -5.7510 C   0  0  0  0  0  0  0  0  0  0  0  0
   -1.3700   14.9070   -1.7750 N   0  0  0  0  0  0  0  0  0  0  0  0
   -1.7090   14.2930   -4.1300 C   0  0  0  0  0  0  0  0  0  0  0  0
    0.2740   15.2090   -3.2980 O   0  0  0  0  0  0  0  0  0  0  0  0
   -2.6880   14.8830   -1.3810 C   0  0  0  0  0  0  0  0  0  0  0  0
   -3.8220   15.1570   -2.1510 C   0  0  0  0  0  0  0  0  0  0  0  0
   -2.8860   14.5420   -0.0410 C   0  0  0  0  0  0  0  0  0  0  0  0
   -5.1100   15.0910   -1.5980 C   0  0  0  0  0  0  0  0  0  0  0  0
   -4.1510   14.4730    0.5190 C   0  0  0  0  0  0  0  0  0  0  0  0
   -5.2740   14.7450   -0.2500 C   0  0  0  0  0  0  0  0  0  0  0  0
   -6.5990   14.6480    0.4120 C   0  0  0  0  0  0  0  0  0  0  0  0
   -6.6440   14.6140    1.7860 N   0  0  0  0  0  0  0  0  0  0  0  0
   -7.6370   14.6010   -0.2360 O   0  0  0  0  0  0  0  0  0  0  0  0
  1  2  1  0
  2  3  2  0
  2  4  1  0
  3  5  1  0
  4  6  1  0
  4  7  2  0
  3  8  1  0
  6  9  1  0
  6 10  1  6
  7 11  1  0
  8 11  2  0
  9 12  1  0
  9 13  1  6
  9 14  1  0
 12 15  1  0
 15 16  2  0
 15 17  1  0
 16 18  1  0
 17 19  2  0
 18 20  2  0
 19 20  1  0
 20 21  1  0
 21 22  1  0
 21 23  2  0
M  END
