mac-x0301-mac-x0341
     RDKit          3D

 19 21  0  0  0  0  0  0  0  0999 V2000
    0.4450   14.1950   -3.0100 O   0  0  0  0  0  0  0  0  0  0  0  0
   -0.8610   14.5070   -3.0910 C   0  0  0  0  0  0  0  0  0  0  0  0
   -1.5530   14.0050   -3.9630 O   0  0  0  0  0  0  0  0  0  0  0  0
   -1.3020   15.5210   -2.0440 C   0  0  2  0  0  0  0  0  0  0  0  0
   -1.0400   15.1740   -0.5860 C   0  0  1  0  0  0  0  0  0  0  0  0
   -2.7310   15.9320   -2.2090 C   0  0  0  0  0  0  0  0  0  0  0  0
   -2.0730   14.3960    0.1850 C   0  0  2  0  0  0  0  0  0  0  0  0
   -3.7350   15.6170   -1.3590 C   0  0  0  0  0  0  0  0  0  0  0  0
    0.1060   14.4050   -0.2740 O   0  0  0  0  0  0  0  0  0  0  0  0
   -3.6030   14.7330   -0.1270 C   0  0  1  0  0  0  0  0  0  0  0  0
   -1.4750   14.6360    1.4830 O   0  0  0  0  0  0  0  0  0  0  0  0
   -0.0890   14.3640    1.1540 C   0  0  0  0  0  0  0  0  0  0  0  0
   -4.1990   13.5190   -0.8480 C   0  0  0  0  0  0  0  0  0  0  0  0
   -4.5530   15.0860    0.9920 N   0  0  0  0  0  0  0  0  0  0  0  0
   -5.9720   14.9420    0.7330 C   0  0  2  0  0  0  0  0  0  0  0  0
   -5.6350   13.8120   -1.1230 C   0  0  0  0  0  0  0  0  0  0  0  0
   -6.6180   14.7990    2.0080 N   0  0  0  0  0  0  0  0  0  0  0  0
   -6.1510   14.0450   -2.2150 O   0  0  0  0  0  0  0  0  0  0  0  0
   -6.3070   13.8250    0.0200 N   0  0  0  0  0  0  0  0  0  0  0  0
  1  2  1  0
  2  3  2  0
  4  2  1  6
  4  5  1  0
  4  6  1  0
  5  7  1  0
  6  8  2  0
  5  9  1  6
  7 10  1  0
 10  8  1  6
  7 11  1  1
  9 12  1  0
 11 12  1  0
 10 13  1  0
 10 14  1  0
 14 15  1  0
 13 16  1  0
 15 17  1  1
 16 18  2  0
 15 19  1  0
 16 19  1  0
M  END
