mac-x0415-mac-x0412
     RDKit          3D

 27 30  0  0  0  0  0  0  0  0999 V2000
    0.0730   11.0010   -3.0270 O   0  0  0  0  0  0  0  0  0  0  0  0
    0.7260   12.1750   -3.1250 C   0  0  0  0  0  0  0  0  0  0  0  0
    1.1610   12.7110   -2.1220 O   0  0  0  0  0  0  0  0  0  0  0  0
    0.8190   12.7030   -4.5410 C   0  0  0  0  0  0  0  0  0  0  0  0
    0.6890   14.1650   -4.4850 C   0  0  0  0  0  0  0  0  0  0  0  0
    1.7980   15.0830   -4.3340 C   0  0  0  0  0  0  0  0  0  0  0  0
   -0.3200   15.0310   -4.5530 C   0  0  0  0  0  0  0  0  0  0  0  0
    1.5540   16.3500   -4.3010 N   0  0  0  0  0  0  0  0  0  0  0  0
    0.1290   16.4300   -4.3640 C   0  0  1  0  0  0  0  0  0  0  0  0
   -1.7150   14.8520   -4.7370 C   0  0  0  0  0  0  0  0  0  0  0  0
   -0.5310   17.4150   -5.2720 C   0  0  0  0  0  0  0  0  0  0  0  0
   -2.4120   15.8710   -5.2890 C   0  0  0  0  0  0  0  0  0  0  0  0
   -3.7540   15.7450   -5.4900 O   0  0  0  0  0  0  0  0  0  0  0  0
   -1.7740   17.1260   -5.7000 C   0  0  0  0  0  0  0  0  0  0  0  0
   -4.1050   14.4000   -5.1710 C   0  0  0  0  0  0  0  0  0  0  0  0
   -5.2300   14.3700   -4.1500 C   0  0  0  0  0  0  0  0  0  0  0  0
   -4.8990   14.4980   -2.6670 C   0  0  0  0  0  0  0  0  0  0  0  0
   -3.6070   14.8970   -2.0760 C   0  0  0  0  0  0  0  0  0  0  0  0
   -5.8930   14.1830   -1.8510 C   0  0  0  0  0  0  0  0  0  0  0  0
   -5.8030   14.1840   -0.3700 C   0  0  2  0  0  0  0  0  0  0  0  0
   -3.4790   15.0980   -0.7310 C   0  0  0  0  0  0  0  0  0  0  0  0
   -7.1100   14.6590    0.2830 C   0  0  0  0  0  0  0  0  0  0  0  0
   -4.6180   14.9400    0.1690 C   0  0  0  0  0  0  0  0  0  0  0  0
   -8.1190   14.9140   -0.3670 O   0  0  0  0  0  0  0  0  0  0  0  0
   -4.6790   15.4110    1.4210 C   0  0  0  0  0  0  0  0  0  0  0  0
   -7.0840   14.7830    1.6440 N   0  0  0  0  0  0  0  0  0  0  0  0
   -5.9560   15.1380    2.1460 C   0  0  0  0  0  0  0  0  0  0  0  0
  1  2  1  0
  2  3  2  0
  2  4  1  0
  4  5  1  0
  5  6  1  0
  5  7  2  0
  6  8  2  0
  7  9  1  0
  8  9  1  0
  7 10  1  0
  9 11  1  6
 10 12  2  0
 12 13  1  0
 11 14  2  0
 12 14  1  0
 13 15  1  0
 15 16  1  0
 16 17  1  0
 17 18  1  0
 17 19  2  0
 20 19  1  6
 18 21  2  0
 20 22  1  0
 20 23  1  0
 21 23  1  0
 22 24  2  0
 23 25  2  0
 22 26  1  0
 25 27  1  0
 26 27  2  0
M  END
