mac-x0404-mac-x0139
     RDKit          3D

 27 30  0  0  0  0  0  0  0  0999 V2000
    1.3590   12.5580   -1.9750 O   0  0  0  0  0  0  0  0  0  0  0  0
    0.8920   11.9500   -3.0780 C   0  0  0  0  0  0  0  0  0  0  0  0
    0.3690   10.8500   -2.9910 O   0  0  0  0  0  0  0  0  0  0  0  0
    1.0870   12.7840   -4.3340 C   0  0  0  0  0  0  0  0  0  0  0  0
    0.8020   14.2300   -4.1170 N   0  0  0  0  0  0  0  0  0  0  0  0
    0.6570   14.6670   -2.7060 C   0  0  0  0  0  0  0  0  0  0  0  0
   -0.3960   14.6720   -4.6820 C   0  0  0  0  0  0  0  0  0  0  0  0
   -0.7680   14.8770   -2.2910 N   0  0  0  0  0  0  0  0  0  0  0  0
   -0.4390   16.0350   -5.0440 C   0  0  0  0  0  0  0  0  0  0  0  0
   -1.5160   13.8530   -4.8660 C   0  0  0  0  0  0  0  0  0  0  0  0
   -1.5670   15.8350   -3.0560 C   0  0  0  0  0  0  0  0  0  0  0  0
   -1.6320   16.5730   -5.5700 C   0  0  0  0  0  0  0  0  0  0  0  0
   -2.6930   14.3830   -5.3920 C   0  0  0  0  0  0  0  0  0  0  0  0
    0.6770   16.8840   -4.8900 C   0  0  0  0  0  0  0  0  0  0  0  0
   -1.0580   14.8970   -0.9350 C   0  0  0  0  0  0  0  0  0  0  0  0
   -2.7520   15.7370   -5.7350 C   0  0  0  0  0  0  0  0  0  0  0  0
   -1.6800   17.9230   -5.9230 C   0  0  0  0  0  0  0  0  0  0  0  0
    0.6200   18.2200   -5.2500 C   0  0  0  0  0  0  0  0  0  0  0  0
   -2.3260   15.1350   -0.5170 C   0  0  0  0  0  0  0  0  0  0  0  0
   -0.0250   14.6640   -0.0400 N   0  0  0  0  0  0  0  0  0  0  0  0
   -0.5620   18.7390   -5.7670 C   0  0  0  0  0  0  0  0  0  0  0  0
   -2.5770   15.1400    0.9280 C   0  0  0  0  0  0  0  0  0  0  0  0
   -0.3150   14.6850    1.2160 C   0  0  0  0  0  0  0  0  0  0  0  0
   -3.6090   15.4040   -1.0810 C   0  0  0  0  0  0  0  0  0  0  0  0
   -1.5380   14.9280    1.7440 N   0  0  0  0  0  0  0  0  0  0  0  0
   -3.8230   15.3660    1.2100 N   0  0  0  0  0  0  0  0  0  0  0  0
   -4.4280   15.5220   -0.0250 C   0  0  0  0  0  0  0  0  0  0  0  0
  1  2  1  0
  2  3  2  0
  2  4  1  0
  4  5  1  0
  5  6  1  0
  5  7  1  0
  6  8  1  0
  7  9  1  0
  7 10  2  0
  8 11  1  0
  9 12  2  0
 10 13  1  0
  9 14  1  0
  8 15  1  0
 12 16  1  0
 13 16  2  0
 12 17  1  0
 14 18  2  0
 15 19  2  0
 15 20  1  0
 17 21  2  0
 18 21  1  0
 19 22  1  0
 20 23  2  0
 19 24  1  0
 22 25  1  0
 23 25  1  0
 22 26  2  0
 24 27  2  0
 26 27  1  0
M  END
