mac-x0306-diamond-x0282_0_A
     RDKit          3D

 23 26  0  0  0  0  0  0  0  0999 V2000
   -7.0840   12.3530    0.4500 C   0  0  0  0  0  0  0  0  0  0  0  0
   -8.3410   12.9880    0.1310 O   0  0  0  0  0  0  0  0  0  0  0  0
   -6.0730   13.4280    0.8520 C   0  0  2  0  0  0  0  0  0  0  0  0
   -5.7370   14.5240   -0.2070 C   0  0  2  0  0  0  0  0  0  0  0  0
   -5.0060   13.0170    1.7910 C   0  0  0  0  0  0  0  0  0  0  0  0
   -7.0950   14.9340    0.3190 C   0  0  0  0  0  0  0  0  0  0  0  0
   -5.8010   14.1380   -1.7010 C   0  0  0  0  0  0  0  0  0  0  0  0
   -4.4240   15.3510    0.1540 C   0  0  2  0  0  0  0  0  0  0  0  0
   -3.8330   13.5720    1.7520 C   0  0  0  0  0  0  0  0  0  0  0  0
   -7.3290   14.8510    1.6810 N   0  0  0  0  0  0  0  0  0  0  0  0
   -8.1670   15.3420   -0.3140 N   0  0  0  0  0  0  0  0  0  0  0  0
   -4.7530   14.2830   -2.5280 C   0  0  0  0  0  0  0  0  0  0  0  0
   -3.7230   15.8400   -1.1160 C   0  0  0  0  0  0  0  0  0  0  0  0
   -3.4540   14.5270    0.8820 N   0  0  0  0  0  0  0  0  0  0  0  0
   -9.1090   15.5180    0.6700 C   0  0  0  0  0  0  0  0  0  0  0  0
   -8.6050   15.2180    1.9130 C   0  0  0  0  0  0  0  0  0  0  0  0
   -3.5810   14.7830   -2.0780 N   0  0  0  0  0  0  0  0  0  0  0  0
   -2.1260   14.6110    0.5180 C   0  0  0  0  0  0  0  0  0  0  0  0
   -1.7520   14.6610   -0.7740 N   0  0  0  0  0  0  0  0  0  0  0  0
   -1.2710   14.6280    1.5340 N   0  0  0  0  0  0  0  0  0  0  0  0
   -0.4500   14.7380   -1.0420 C   0  0  0  0  0  0  0  0  0  0  0  0
    0.0050   14.7050    1.2170 C   0  0  0  0  0  0  0  0  0  0  0  0
    0.4910   14.7660   -0.0700 C   0  0  0  0  0  0  0  0  0  0  0  0
  1  2  1  0
  3  1  1  6
  3  4  1  0
  3  5  1  0
  4  6  1  6
  4  7  1  0
  4  8  1  0
  5  9  2  0
  6 10  1  0
  6 11  2  0
  7 12  2  0
  8 13  1  6
  8 14  1  0
  9 14  1  0
 11 15  1  0
 10 16  1  0
 15 16  2  0
 12 17  1  0
 13 17  1  0
 14 18  1  0
 18 19  2  0
 18 20  1  0
 19 21  1  0
 20 22  2  0
 21 23  2  0
 22 23  1  0
M  END
