mac-x0161-mac-x0455
     RDKit          3D

 23 25  0  0  0  0  0  0  0  0999 V2000
   -4.6700   15.3340    1.3300 N   0  0  0  0  0  0  0  0  0  0  0  0
   -3.7070   15.3100    0.2600 C   0  0  1  0  0  0  0  0  0  0  0  0
   -2.4770   14.5200    0.4550 C   0  0  1  0  0  0  0  0  0  0  0  0
   -4.2850   14.7460   -0.9600 N   0  0  0  0  0  0  0  0  0  0  0  0
   -3.3210   15.0560   -2.0030 C   0  0  0  0  0  0  0  0  0  0  0  0
   -1.7010   14.0670   -0.6920 C   0  0  1  0  0  0  0  0  0  0  0  0
   -1.5620   15.0930    1.4150 N   0  0  0  0  0  0  0  0  0  0  0  0
   -1.9750   14.7680   -1.8590 N   0  0  0  0  0  0  0  0  0  0  0  0
   -0.3040   14.3370   -0.2970 N   0  0  0  0  0  0  0  0  0  0  0  0
   -0.2760   14.5340    1.1060 C   0  0  0  0  0  0  0  0  0  0  0  0
   -0.7350   14.7430   -3.1870 S   0  0  0  0  0  0  0  0  0  0  0  0
    0.4660   15.1960   -4.4720 C   0  0  0  0  0  0  0  0  0  0  0  0
   -2.4620   15.3720   -4.0120 O   0  0  0  0  0  0  0  0  0  0  0  0
    0.4880   14.9380   -1.8320 C   0  0  0  0  0  0  0  0  0  0  0  0
   -0.7010   12.9080   -3.5970 C   0  0  0  0  0  0  0  0  0  0  0  0
    0.7560   15.6400   -1.0030 O   0  0  0  0  0  0  0  0  0  0  0  0
    1.3730   13.8130   -1.8270 O   0  0  0  0  0  0  0  0  0  0  0  0
   -1.0940   12.3400   -4.7590 C   0  0  0  0  0  0  0  0  0  0  0  0
   -0.2960   11.9780   -2.8910 O   0  0  0  0  0  0  0  0  0  0  0  0
   -0.3510   10.8140   -3.4050 N   0  0  0  0  0  0  0  0  0  0  0  0
   -0.8480   10.9830   -4.5940 C   0  0  0  0  0  0  0  0  0  0  0  0
   -1.1090   10.0690   -5.5650 O   0  0  0  0  0  0  0  0  0  0  0  0
   -2.1670   10.4230   -6.4230 C   0  0  0  0  0  0  0  0  0  0  0  0
  2  1  1  1
  2  3  1  0
  2  4  1  0
  4  5  1  0
  3  6  1  0
  3  7  1  1
  5  8  1  0
  6  8  1  0
  6  9  1  1
  7 10  1  0
  9 10  1  0
  8 11  1  0
 11 12  1  0
 11 13  1  0
 11 14  1  0
 11 15  1  0
 14 16  2  0
 14 17  1  0
 15 18  2  0
 15 19  1  0
 19 20  1  0
 18 21  1  0
 20 21  2  0
 21 22  1  0
 22 23  1  0
M  END
