mac-x0398-mac-x0387
     RDKit          3D

 21 23  0  0  0  0  0  0  0  0999 V2000
   -6.7720   14.4670    2.0700 N   0  0  0  0  0  0  0  0  0  0  0  0
   -6.1860   14.6190    0.8100 C   0  0  0  0  0  0  0  0  0  0  0  0
   -4.8520   14.3160    0.6400 C   0  0  0  0  0  0  0  0  0  0  0  0
   -6.9100   15.0730   -0.2970 C   0  0  0  0  0  0  0  0  0  0  0  0
   -6.3040   15.2360   -1.5460 C   0  0  0  0  0  0  0  0  0  0  0  0
   -4.2540   14.4800   -0.5980 C   0  0  0  0  0  0  0  0  0  0  0  0
   -7.0950   15.6820   -2.5400 O   0  0  0  0  0  0  0  0  0  0  0  0
   -4.9720   14.9500   -1.7100 C   0  0  0  0  0  0  0  0  0  0  0  0
   -4.1830   15.0910   -2.9520 C   0  0  0  0  0  0  0  0  0  0  0  0
   -4.5390   15.2190   -4.1100 O   0  0  0  0  0  0  0  0  0  0  0  0
   -2.8770   14.9970   -2.4660 C   0  0  0  0  0  0  0  0  0  0  0  0
   -1.6450   14.8780   -3.0700 C   0  0  0  0  0  0  0  0  0  0  0  0
   -3.0700   15.0230   -1.1160 C   0  0  0  0  0  0  0  0  0  0  0  0
   -2.0530   14.9010   -0.2390 C   0  0  0  0  0  0  0  0  0  0  0  0
   -0.5590   14.7520   -2.1920 C   0  0  0  0  0  0  0  0  0  0  0  0
   -2.2520   14.9150    1.1420 C   0  0  0  0  0  0  0  0  0  0  0  0
   -0.7700   14.7530   -0.7850 C   0  0  0  0  0  0  0  0  0  0  0  0
   -3.4960   15.1090    1.7490 N   0  0  0  0  0  0  0  0  0  0  0  0
    0.2520   14.6080    0.1080 C   0  0  0  0  0  0  0  0  0  0  0  0
   -1.2740   14.7530    1.9770 N   0  0  0  0  0  0  0  0  0  0  0  0
   -0.0620   14.6060    1.4590 C   0  0  0  0  0  0  0  0  0  0  0  0
  1  2  1  0
  2  3  2  0
  2  4  1  0
  4  5  2  0
  3  6  1  0
  5  7  1  0
  5  8  1  0
  6  8  2  0
  8  9  1  0
  9 10  2  0
  9 11  1  0
 11 12  2  0
 11 13  1  0
 13 14  2  0
 12 15  1  0
 14 16  1  0
 14 17  1  0
 15 17  2  0
 16 18  1  0
 17 19  1  0
 16 20  2  0
 19 21  2  0
 20 21  1  0
M  END
