mac-x0263-diamond-x0722_0_A
     RDKit          3D

 26 28  0  0  0  0  0  0  0  0999 V2000
  -12.0110   14.5170    2.9480 O   0  0  0  0  0  0  0  0  0  0  0  0
  -11.2790   15.6460    3.0260 C   0  0  0  0  0  0  0  0  0  0  0  0
  -11.5850   16.5580    3.7720 O   0  0  0  0  0  0  0  0  0  0  0  0
  -10.1080   15.5990    2.1070 C   0  0  0  0  0  0  0  0  0  0  0  0
   -9.6340   14.1690    1.9630 C   0  0  0  0  0  0  0  0  0  0  0  0
   -8.2760   14.2210    1.4550 C   0  0  0  0  0  0  0  0  0  0  0  0
   -8.0010   14.9610    0.3630 N   0  0  0  0  0  0  0  0  0  0  0  0
   -7.2330   13.6210    1.9480 N   0  0  0  0  0  0  0  0  0  0  0  0
   -6.6940   14.8360    0.1390 C   0  0  0  0  0  0  0  0  0  0  0  0
   -6.2210   13.9930    1.1340 C   0  0  0  0  0  0  0  0  0  0  0  0
   -5.9260   15.3700   -0.8110 C   0  0  0  0  0  0  0  0  0  0  0  0
   -4.8790   13.6440    1.1900 C   0  0  0  0  0  0  0  0  0  0  0  0
   -4.6130   14.9970   -0.7360 C   0  0  0  0  0  0  0  0  0  0  0  0
   -4.0700   14.1610    0.2230 C   0  0  0  0  0  0  0  0  0  0  0  0
   -3.7440   15.4710   -1.7150 C   0  0  2  0  0  0  0  0  0  0  0  0
   -5.0320   14.7960   -2.2660 C   0  0  0  0  0  0  0  0  0  0  0  0
   -2.9350   15.1860   -0.4580 C   0  0  0  0  0  0  0  0  0  0  0  0
   -5.9030   15.3500   -2.9170 O   0  0  0  0  0  0  0  0  0  0  0  0
   -5.2250   13.4580   -1.9200 N   0  0  0  0  0  0  0  0  0  0  0  0
   -3.1910   15.3740    0.9710 C   0  0  0  0  0  0  0  0  0  0  0  0
   -1.6770   14.6310   -0.4640 C   0  0  0  0  0  0  0  0  0  0  0  0
   -4.3220   15.9160    1.7400 C   0  0  0  0  0  0  0  0  0  0  0  0
   -0.8290   14.2000   -1.5980 C   0  0  0  0  0  0  0  0  0  0  0  0
   -2.1820   14.9610    1.7070 N   0  0  0  0  0  0  0  0  0  0  0  0
   -1.2930   14.5280    0.8420 N   0  0  0  0  0  0  0  0  0  0  0  0
   -0.0800   14.0240    1.3520 C   0  0  0  0  0  0  0  0  0  0  0  0
  1  2  1  0
  2  3  2  0
  2  4  1  0
  4  5  1  0
  5  6  1  0
  6  7  1  0
  6  8  2  0
  7  9  1  0
  8 10  1  0
  9 10  2  0
  9 11  1  0
 10 12  1  0
 11 13  2  0
 12 14  2  0
 13 14  1  0
 13 15  1  0
 15 16  1  6
 15 17  1  0
 16 18  2  0
 16 19  1  0
 17 20  1  0
 17 21  2  0
 20 22  1  0
 21 23  1  0
 20 24  2  0
 21 25  1  0
 24 25  1  0
 25 26  1  0
M  END
