mac-x0226-mac-x0338
     RDKit          3D

 26 28  0  0  0  0  0  0  0  0999 V2000
    1.2610   12.4520   -1.9610 O   0  0  0  0  0  0  0  0  0  0  0  0
    0.3010   11.6870   -2.6690 C   0  0  0  0  0  0  0  0  0  0  0  0
    0.4610   10.3520   -2.2160 O   0  0  0  0  0  0  0  0  0  0  0  0
   -1.0900   12.1850   -2.2860 C   0  0  0  0  0  0  0  0  0  0  0  0
    0.5540   11.7640   -4.1370 C   0  0  0  0  0  0  0  0  0  0  0  0
   -1.6190   13.3390   -3.1350 C   0  0  0  0  0  0  0  0  0  0  0  0
    1.4120   12.6400   -4.8470 C   0  0  0  0  0  0  0  0  0  0  0  0
    0.0040   10.9820   -5.1280 C   0  0  0  0  0  0  0  0  0  0  0  0
   -1.7800   14.6480   -2.3740 C   0  0  0  0  0  0  0  0  0  0  0  0
    1.4010   12.4190   -6.1610 N   0  0  0  0  0  0  0  0  0  0  0  0
    0.5290   11.3860   -6.3270 N   0  0  0  0  0  0  0  0  0  0  0  0
    0.2440   10.8290   -7.5990 C   0  0  0  0  0  0  0  0  0  0  0  0
   -3.1830   14.8490   -1.8900 C   0  0  0  0  0  0  0  0  0  0  0  0
   -0.9920   10.2220   -7.8410 C   0  0  0  0  0  0  0  0  0  0  0  0
    1.2060   10.8770   -8.6120 C   0  0  0  0  0  0  0  0  0  0  0  0
   -3.4640   14.8830   -0.5610 N   0  0  0  0  0  0  0  0  0  0  0  0
   -4.1770   14.9890   -2.8580 C   0  0  0  0  0  0  0  0  0  0  0  0
   -1.2630    9.6690   -9.0960 C   0  0  0  0  0  0  0  0  0  0  0  0
    0.9340   10.3240   -9.8650 C   0  0  0  0  0  0  0  0  0  0  0  0
   -4.7880   15.0570   -0.2730 C   0  0  0  0  0  0  0  0  0  0  0  0
   -5.4790   15.1610   -2.5630 N   0  0  0  0  0  0  0  0  0  0  0  0
   -5.2060   15.0960    1.1400 C   0  0  0  0  0  0  0  0  0  0  0  0
   -0.3020    9.7230  -10.1040 C   0  0  0  0  0  0  0  0  0  0  0  0
   -5.7640   15.1950   -1.2430 C   0  0  0  0  0  0  0  0  0  0  0  0
   -4.2350   15.3150    2.0570 N   0  0  0  0  0  0  0  0  0  0  0  0
   -6.3760   14.9270    1.4630 O   0  0  0  0  0  0  0  0  0  0  0  0
  2  1  1  0
  2  3  1  0
  2  4  1  0
  2  5  1  0
  4  6  1  0
  5  7  1  0
  5  8  2  0
  6  9  1  0
  7 10  2  0
  8 11  1  0
 10 11  1  0
 11 12  1  0
  9 13  1  0
 12 14  2  0
 12 15  1  0
 13 16  2  0
 13 17  1  0
 14 18  1  0
 15 19  2  0
 16 20  1  0
 17 21  2  0
 20 22  1  0
 18 23  2  0
 19 23  1  0
 20 24  2  0
 21 24  1  0
 22 25  1  0
 22 26  2  0
M  END
