mac-x0510-mac-x0565
     RDKit          3D

 22 25  0  0  0  0  0  0  0  0999 V2000
   -5.7390   14.1880    0.2550 N   0  0  0  0  0  0  0  0  0  0  0  0
   -6.3430   14.2800   -0.9720 C   0  0  0  0  0  0  0  0  0  0  0  0
   -7.5500   14.3650   -1.1790 O   0  0  0  0  0  0  0  0  0  0  0  0
   -4.7170   14.9500    0.4400 C   0  0  0  0  0  0  0  0  0  0  0  0
   -3.8720   15.0530    1.5040 N   0  0  0  0  0  0  0  0  0  0  0  0
   -4.4290   15.7670   -0.6270 N   0  0  0  0  0  0  0  0  0  0  0  0
   -5.3630   14.2730   -2.1190 C   0  0  0  0  0  0  0  0  0  0  0  0
   -2.5860   15.0740    1.1300 C   0  0  0  0  0  0  0  0  0  0  0  0
   -3.1470   15.8570   -1.1180 C   0  0  0  0  0  0  0  0  0  0  0  0
   -4.0260   13.8830   -1.8680 C   0  0  0  0  0  0  0  0  0  0  0  0
   -5.7380   14.6500   -3.4250 C   0  0  0  0  0  0  0  0  0  0  0  0
   -2.8610   16.2220   -2.2500 O   0  0  0  0  0  0  0  0  0  0  0  0
   -2.2170   15.4610   -0.1290 C   0  0  0  0  0  0  0  0  0  0  0  0
   -1.5160   14.7390    1.8760 N   0  0  0  0  0  0  0  0  0  0  0  0
   -3.1290   13.9020   -2.9190 C   0  0  0  0  0  0  0  0  0  0  0  0
   -4.8000   14.6510   -4.4710 C   0  0  0  0  0  0  0  0  0  0  0  0
   -0.8600   15.3650   -0.1650 N   0  0  0  0  0  0  0  0  0  0  0  0
   -0.4850   14.9220    1.0750 C   0  0  0  0  0  0  0  0  0  0  0  0
   -3.5030   14.2770   -4.1850 C   0  0  0  0  0  0  0  0  0  0  0  0
   -1.8030   13.5710   -2.8650 O   0  0  0  0  0  0  0  0  0  0  0  0
   -2.4660   14.2310   -5.0640 O   0  0  0  0  0  0  0  0  0  0  0  0
   -1.3700   14.1090   -4.1320 C   0  0  0  0  0  0  0  0  0  0  0  0
  1  2  1  0
  2  3  2  0
  1  4  2  3
  4  5  1  0
  4  6  1  0
  2  7  1  0
  5  8  1  0
  6  9  1  0
  7 10  2  0
  7 11  1  0
  9 12  2  0
  8 13  2  0
  9 13  1  0
  8 14  1  0
 10 15  1  0
 11 16  2  0
 13 17  1  0
 14 18  2  0
 17 18  1  0
 15 19  2  0
 16 19  1  0
 15 20  1  0
 19 21  1  0
 20 22  1  0
 21 22  1  0
M  END
