mac-x0159-mac-x0394
     RDKit          3D

 23 25  0  0  0  0  0  0  0  0999 V2000
   -4.5160   15.4040    1.0890 N   0  0  0  0  0  0  0  0  0  0  0  0
   -3.5720   14.9090    0.0970 C   0  0  2  0  0  0  0  0  0  0  0  0
   -2.1300   15.3080    0.3840 C   0  0  2  0  0  0  0  0  0  0  0  0
   -4.0260   15.4630   -1.1660 N   0  0  0  0  0  0  0  0  0  0  0  0
   -3.1170   15.2520   -2.3100 C   0  0  0  0  0  0  0  0  0  0  0  0
   -1.3560   14.7590   -0.7810 C   0  0  1  0  0  0  0  0  0  0  0  0
   -1.4170   14.7420    1.5250 N   0  0  0  0  0  0  0  0  0  0  0  0
   -1.6660   15.4040   -2.0340 N   0  0  0  0  0  0  0  0  0  0  0  0
   -0.0050   14.9990   -0.3620 N   0  0  0  0  0  0  0  0  0  0  0  0
   -0.0590   14.5530    1.0190 C   0  0  0  0  0  0  0  0  0  0  0  0
   -0.8250   14.6760   -2.9930 C   0  0  0  0  0  0  0  0  0  0  0  0
   -0.1730   15.2980   -4.3070 C   0  0  2  0  0  0  0  0  0  0  0  0
    0.4760   13.9850   -4.8940 C   0  0  0  0  0  0  0  0  0  0  0  0
    0.9120   16.4420   -4.1680 C   0  0  2  0  0  0  0  0  0  0  0  0
   -1.1810   15.9810   -5.2390 N   0  0  0  0  0  0  0  0  0  0  0  0
    0.3820   17.9860   -3.4700 Cl  0  0  0  0  0  0  0  0  0  0  0  0
   -2.9050   15.6060   -5.2250 Cl  0  0  0  0  0  0  0  0  0  0  0  0
    0.6990   12.8900   -3.8320 C   0  0  0  0  0  0  0  0  0  0  0  0
   -0.7900   17.3940   -5.4440 C   0  0  1  0  0  0  0  0  0  0  0  0
    0.9690   17.2360   -5.7770 S   0  0  0  0  0  0  0  0  0  0  0  0
   -1.5000   18.1390   -6.5680 C   0  0  0  0  0  0  0  0  0  0  0  0
    0.0920   11.7180   -4.1310 O   0  0  0  0  0  0  0  0  0  0  0  0
    1.3290   12.9600   -2.7870 O   0  0  0  0  0  0  0  0  0  0  0  0
  2  1  1  1
  2  3  1  0
  2  4  1  0
  4  5  1  0
  3  6  1  0
  3  7  1  1
  5  8  1  0
  6  8  1  0
  6  9  1  1
  7 10  1  0
  9 10  1  0
  8 11  1  0
 12 11  1  1
 12 13  1  0
 12 14  1  0
 12 15  1  0
 14 16  1  1
 15 17  1  0
 13 18  1  0
 15 19  1  0
 14 20  1  0
 19 20  1  0
 19 21  1  6
 18 22  1  0
 18 23  2  0
M  END
