mac-x0338-mac-x0411
     RDKit          3D

 24 25  0  0  0  0  0  0  0  0999 V2000
   -4.1610   15.3480    1.9590 N   0  0  0  0  0  0  0  0  0  0  0  0
   -5.1270   15.1000    1.0500 C   0  0  0  0  0  0  0  0  0  0  0  0
   -6.3060   14.9660    1.3560 O   0  0  0  0  0  0  0  0  0  0  0  0
   -4.6390   14.9800   -0.3360 C   0  0  0  0  0  0  0  0  0  0  0  0
   -3.2930   14.9200   -0.5040 N   0  0  0  0  0  0  0  0  0  0  0  0
   -5.5330   14.9280   -1.3910 C   0  0  0  0  0  0  0  0  0  0  0  0
   -2.8910   14.7940   -1.7850 C   0  0  0  0  0  0  0  0  0  0  0  0
   -5.1150   14.8000   -2.6740 N   0  0  0  0  0  0  0  0  0  0  0  0
   -3.7690   14.7270   -2.8640 C   0  0  0  0  0  0  0  0  0  0  0  0
   -3.2070   14.5610   -4.2630 C   0  0  0  0  0  0  0  0  0  0  0  0
   -1.7320   14.0910   -4.3450 C   0  0  0  0  0  0  0  0  0  0  0  0
   -1.3800   13.2820   -5.6160 C   0  0  0  0  0  0  0  0  0  0  0  0
   -1.6070   11.7700   -5.8590 C   0  0  0  0  0  0  0  0  0  0  0  0
   -0.5530   10.9450   -6.3360 C   0  0  0  0  0  0  0  0  0  0  0  0
   -2.8630   11.1640   -5.6610 C   0  0  0  0  0  0  0  0  0  0  0  0
    0.6980   11.4960   -6.5260 O   0  0  0  0  0  0  0  0  0  0  0  0
   -3.0700    9.8010   -5.9340 C   0  0  0  0  0  0  0  0  0  0  0  0
   -0.7830    9.5740   -6.6320 C   0  0  0  0  0  0  0  0  0  0  0  0
    0.4130    8.5030   -7.2790 Cl  0  0  0  0  0  0  0  0  0  0  0  0
    1.1330   12.4400   -5.5110 C   0  0  0  0  0  0  0  0  0  0  0  0
   -2.0340    9.0150   -6.4220 C   0  0  0  0  0  0  0  0  0  0  0  0
    0.9100   11.9430   -4.0810 C   0  0  0  0  0  0  0  0  0  0  0  0
    1.3910   12.8050   -3.1530 O   0  0  0  0  0  0  0  0  0  0  0  0
    0.3890   10.9040   -3.7080 O   0  0  0  0  0  0  0  0  0  0  0  0
  1  2  1  0
  2  3  2  0
  2  4  1  0
  4  5  2  0
  4  6  1  0
  5  7  1  0
  6  8  2  0
  7  9  2  0
  8  9  1  0
  9 10  1  0
 10 11  1  0
 11 12  1  0
 12 13  1  0
 13 14  2  0
 13 15  1  0
 14 16  1  0
 15 17  2  0
 14 18  1  0
 18 19  1  0
 16 20  1  0
 17 21  1  0
 18 21  2  0
 20 22  1  0
 22 23  1  0
 22 24  2  0
M  END
