mac-x0472-mac-x0223
     RDKit          3D

 28 30  0  0  0  0  0  0  0  0999 V2000
   -4.9030   15.3800   -2.0410 O   0  0  0  0  0  0  0  0  0  0  0  0
   -3.8730   14.6040   -2.6790 S   0  0  1  0  0  0  0  0  0  0  0  0
   -3.4200   14.8660   -4.1290 N   0  0  0  0  0  0  0  0  0  0  0  0
   -2.5670   14.8410   -1.6510 N   0  0  0  0  0  0  0  0  0  0  0  0
   -4.3580   12.9110   -2.4080 C   0  0  0  0  0  0  0  0  0  0  0  0
   -2.8360   14.8850   -0.3300 C   0  0  0  0  0  0  0  0  0  0  0  0
   -3.5500   11.8380   -2.8060 C   0  0  0  0  0  0  0  0  0  0  0  0
   -5.5820   12.6760   -1.7720 C   0  0  0  0  0  0  0  0  0  0  0  0
   -2.0560   15.3060   -4.3900 C   0  0  0  0  0  0  0  0  0  0  0  0
   -2.0080   14.4460    0.6020 N   0  0  0  0  0  0  0  0  0  0  0  0
   -4.3030   15.5150    0.3300 S   0  0  0  0  0  0  0  0  0  0  0  0
   -3.9780   10.5310   -2.5690 C   0  0  0  0  0  0  0  0  0  0  0  0
   -6.0030   11.3690   -1.5390 C   0  0  0  0  0  0  0  0  0  0  0  0
   -1.6140   16.6140   -4.6840 C   0  0  0  0  0  0  0  0  0  0  0  0
   -1.1330   14.2860   -4.3240 C   0  0  0  0  0  0  0  0  0  0  0  0
   -2.4440   17.7110   -4.7750 O   0  0  0  0  0  0  0  0  0  0  0  0
   -3.7080   15.1290    1.8670 C   0  0  0  0  0  0  0  0  0  0  0  0
   -2.5140   14.5830    1.8720 N   0  0  0  0  0  0  0  0  0  0  0  0
   -5.2030   10.3010   -1.9400 C   0  0  0  0  0  0  0  0  0  0  0  0
   -0.2630   16.8640   -4.8960 C   0  0  0  0  0  0  0  0  0  0  0  0
    0.2190   14.5150   -4.5350 C   0  0  0  0  0  0  0  0  0  0  0  0
    0.0060   18.1760   -5.1630 O   0  0  0  0  0  0  0  0  0  0  0  0
    1.1630   13.3480   -4.4360 C   0  0  0  0  0  0  0  0  0  0  0  0
    0.6580   15.8200   -4.8230 C   0  0  0  0  0  0  0  0  0  0  0  0
    1.2610   18.4210   -5.7510 C   0  0  0  0  0  0  0  0  0  0  0  0
    0.8500   12.4750   -3.2400 C   0  0  0  0  0  0  0  0  0  0  0  0
    0.3520   11.3640   -3.2180 O   0  0  0  0  0  0  0  0  0  0  0  0
    1.1940   13.0840   -2.0860 O   0  0  0  0  0  0  0  0  0  0  0  0
  1  2  2  0
  2  3  2  0
  2  4  1  1
  2  5  1  0
  4  6  1  0
  5  7  2  0
  5  8  1  0
  3  9  1  0
  6 10  2  0
  6 11  1  0
  7 12  1  0
  8 13  2  0
  9 14  2  0
  9 15  1  0
 14 16  1  0
 11 17  1  0
 10 18  1  0
 17 18  2  0
 12 19  2  0
 13 19  1  0
 14 20  1  0
 15 21  2  0
 20 22  1  0
 21 23  1  0
 20 24  2  0
 21 24  1  0
 22 25  1  0
 23 26  1  0
 26 27  2  0
 26 28  1  0
M  END
