mac-x0282-mac-x0397
     RDKit          3D

 14 16  0  0  0  0  0  0  0  0999 V2000
   -4.5870   15.4800   -2.0690 Cl  0  0  0  0  0  0  0  0  0  0  0  0
   -3.9110   14.3890   -0.8350 C   0  0  2  0  0  0  0  0  0  0  0  0
   -4.5390   14.5990    0.5620 C   0  0  1  0  0  0  0  0  0  0  0  0
   -2.4460   14.5520   -0.4700 C   0  0  0  0  0  0  0  0  0  0  0  0
   -2.3460   14.9850    0.8540 C   0  0  0  0  0  0  0  0  0  0  0  0
   -3.6050   15.1940    1.4110 N   0  0  0  0  0  0  0  0  0  0  0  0
   -1.2850   14.3340   -1.1930 C   0  0  0  0  0  0  0  0  0  0  0  0
   -5.8810   15.0530    0.7320 N   0  0  0  0  0  0  0  0  0  0  0  0
   -5.0230   13.1870    1.5020 S   0  0  0  0  0  0  0  0  0  0  0  0
   -0.0720   14.5590   -0.5340 C   0  0  0  0  0  0  0  0  0  0  0  0
   -1.2230   15.1830    1.5010 N   0  0  0  0  0  0  0  0  0  0  0  0
   -5.8500   14.6680    2.0960 C   0  0  2  0  0  0  0  0  0  0  0  0
   -7.1360   14.4110    2.6670 N   0  0  0  0  0  0  0  0  0  0  0  0
   -0.1060   14.9730    0.7930 C   0  0  0  0  0  0  0  0  0  0  0  0
  2  1  1  6
  2  3  1  0
  2  4  1  0
  4  5  2  0
  3  6  1  1
  5  6  1  0
  4  7  1  0
  3  8  1  0
  3  9  1  0
  7 10  2  0
  5 11  1  0
  8 12  1  0
  9 12  1  0
 12 13  1  6
 10 14  1  0
 11 14  2  0
M  END
