mac-x0283-mac-x0204
     RDKit          3D

 22 24  0  0  0  0  0  0  0  0999 V2000
   -6.9380   14.6460    2.5300 N   0  0  0  0  0  0  0  0  0  0  0  0
   -6.7100   14.7330    1.2080 C   0  0  0  0  0  0  0  0  0  0  0  0
   -7.6430   14.6110    0.2590 N   0  0  0  0  0  0  0  0  0  0  0  0
   -5.4300   14.9780    0.6550 C   0  0  0  0  0  0  0  0  0  0  0  0
   -6.9770   14.7750   -0.9450 O   0  0  0  0  0  0  0  0  0  0  0  0
   -5.6550   14.9930   -0.7060 C   0  0  0  0  0  0  0  0  0  0  0  0
   -4.1290   15.1860    1.1370 C   0  0  0  0  0  0  0  0  0  0  0  0
   -4.6580   15.2000   -1.6530 C   0  0  0  0  0  0  0  0  0  0  0  0
   -3.1050   15.3940    0.2200 C   0  0  0  0  0  0  0  0  0  0  0  0
   -3.3550   15.4000   -1.1490 C   0  0  0  0  0  0  0  0  0  0  0  0
   -2.2160   15.6150   -2.0820 C   0  0  0  0  0  0  0  0  0  0  0  0
   -0.8170   15.2290   -1.5520 C   0  0  0  0  0  0  0  0  0  0  0  0
   -0.0500   14.3900   -2.5830 C   0  0  0  0  0  0  0  0  0  0  0  0
    0.4420   13.1800   -2.0370 O   0  0  0  0  0  0  0  0  0  0  0  0
    1.0960   15.1250   -2.9830 O   0  0  0  0  0  0  0  0  0  0  0  0
   -1.0090   14.2140   -3.7370 C   0  0  0  0  0  0  0  0  0  0  0  0
   -1.4950   15.3300   -4.4240 C   0  0  0  0  0  0  0  0  0  0  0  0
   -1.4680   12.9620   -4.1540 C   0  0  0  0  0  0  0  0  0  0  0  0
   -2.3960   15.1700   -5.4590 C   0  0  0  0  0  0  0  0  0  0  0  0
   -2.3490   12.7710   -5.1690 N   0  0  0  0  0  0  0  0  0  0  0  0
   -2.8840   16.2460   -6.1370 O   0  0  0  0  0  0  0  0  0  0  0  0
   -2.7940   13.8870   -5.7970 C   0  0  0  0  0  0  0  0  0  0  0  0
  1  2  1  0
  2  3  2  0
  2  4  1  0
  3  5  1  0
  4  6  2  0
  5  6  1  0
  4  7  1  0
  6  8  1  0
  7  9  2  0
  8 10  2  0
  9 10  1  0
 10 11  1  0
 11 12  1  0
 12 13  1  0
 13 14  1  0
 13 15  1  0
 13 16  1  0
 16 17  2  0
 16 18  1  0
 17 19  1  0
 18 20  2  0
 19 21  1  0
 19 22  2  0
 20 22  1  0
M  END
