mac-x0305-mac-x0255
     RDKit          3D

 22 24  0  0  0  0  0  0  0  0999 V2000
   -0.0660   12.7330   -1.3040 O   0  0  0  0  0  0  0  0  0  0  0  0
   -0.2520   14.0790   -1.4330 C   0  0  0  0  0  0  0  0  0  0  0  0
    0.5330   14.8540   -1.9390 O   0  0  0  0  0  0  0  0  0  0  0  0
    0.4480   12.0030   -2.3720 C   0  0  0  0  0  0  0  0  0  0  0  0
    0.3880   10.7670   -2.4310 O   0  0  0  0  0  0  0  0  0  0  0  0
    1.1670   12.7950   -3.4940 C   0  0  0  0  0  0  0  0  0  0  0  0
   -1.5870   14.5330   -0.8810 C   0  0  0  0  0  0  0  0  0  0  0  0
   -1.8970   14.7580    0.4860 C   0  0  0  0  0  0  0  0  0  0  0  0
   -2.5160   14.7360   -1.8660 N   0  0  0  0  0  0  0  0  0  0  0  0
    0.4990   14.0440   -4.0390 C   0  0  0  0  0  0  0  0  0  0  0  0
   -1.0770   14.6040    1.5830 O   0  0  0  0  0  0  0  0  0  0  0  0
   -3.1890   15.2000    0.7960 C   0  0  0  0  0  0  0  0  0  0  0  0
   -3.7450   15.1640   -1.5180 C   0  0  0  0  0  0  0  0  0  0  0  0
    1.1110   15.2510   -4.3440 C   0  0  0  0  0  0  0  0  0  0  0  0
   -1.1780   14.1210   -4.3640 S   0  0  0  0  0  0  0  0  0  0  0  0
   -4.1250   15.4090   -0.2140 C   0  0  0  0  0  0  0  0  0  0  0  0
    0.2030   16.2490   -4.8390 C   0  0  0  0  0  0  0  0  0  0  0  0
   -1.1030   15.7590   -4.9010 C   0  0  0  0  0  0  0  0  0  0  0  0
    0.4400   17.5820   -5.2470 C   0  0  0  0  0  0  0  0  0  0  0  0
   -2.1710   16.5630   -5.3570 C   0  0  0  0  0  0  0  0  0  0  0  0
   -0.6140   18.3790   -5.6990 C   0  0  0  0  0  0  0  0  0  0  0  0
   -1.9020   17.8740   -5.7530 C   0  0  0  0  0  0  0  0  0  0  0  0
  1  2  1  0
  2  3  2  0
  1  4  1  0
  4  5  2  0
  4  6  1  0
  2  7  1  0
  7  8  2  0
  7  9  1  0
  6 10  1  0
  8 11  1  0
  8 12  1  0
  9 13  2  0
 10 14  2  0
 10 15  1  0
 12 16  2  0
 13 16  1  0
 14 17  1  0
 15 18  1  0
 17 18  2  0
 17 19  1  0
 18 20  1  0
 19 21  2  0
 20 22  2  0
 21 22  1  0
M  END
