mac-x0348-mac-x0417
     RDKit          3D

 24 27  0  0  0  0  0  0  0  0999 V2000
    0.3600   18.7230   -5.9580 C   0  0  0  0  0  0  0  0  0  0  0  0
   -0.0610   17.4310   -5.5140 N   0  0  0  0  0  0  0  0  0  0  0  0
    0.7460   16.5590   -4.8720 C   0  0  0  0  0  0  0  0  0  0  0  0
   -1.3020   16.8900   -5.6800 C   0  0  0  0  0  0  0  0  0  0  0  0
    0.0610   15.4070   -4.6090 C   0  0  0  0  0  0  0  0  0  0  0  0
   -1.2640   15.6050   -5.1120 C   0  0  0  0  0  0  0  0  0  0  0  0
   -2.4500   17.4060   -6.2890 C   0  0  0  0  0  0  0  0  0  0  0  0
    0.6960   14.2320   -3.9310 C   0  0  0  0  0  0  0  0  0  0  0  0
   -2.4340   14.8230   -5.1530 C   0  0  0  0  0  0  0  0  0  0  0  0
   -3.5830   16.5930   -6.3250 C   0  0  0  0  0  0  0  0  0  0  0  0
    0.0200   12.8370   -4.0190 C   0  0  2  0  0  0  0  0  0  0  0  0
   -3.5800   15.3290   -5.7650 C   0  0  0  0  0  0  0  0  0  0  0  0
    0.4630   12.0270   -2.8050 C   0  0  0  0  0  0  0  0  0  0  0  0
    0.1260   11.9680   -5.2990 C   0  0  0  0  0  0  0  0  0  0  0  0
    1.1250   12.5260   -1.9000 O   0  0  0  0  0  0  0  0  0  0  0  0
    0.1080   10.7230   -2.7230 O   0  0  0  0  0  0  0  0  0  0  0  0
    1.1570   12.0580   -6.1700 N   0  0  0  0  0  0  0  0  0  0  0  0
   -0.7920   10.9580   -5.7570 C   0  0  0  0  0  0  0  0  0  0  0  0
    0.9170   11.1240   -7.1820 O   0  0  0  0  0  0  0  0  0  0  0  0
   -0.2440   10.4670   -6.9340 C   0  0  0  0  0  0  0  0  0  0  0  0
   -2.0090   10.3980   -5.3240 C   0  0  0  0  0  0  0  0  0  0  0  0
   -0.8130    9.4580   -7.7220 C   0  0  0  0  0  0  0  0  0  0  0  0
   -2.6080    9.3850   -6.0870 C   0  0  0  0  0  0  0  0  0  0  0  0
   -2.0240    8.9210   -7.2650 C   0  0  0  0  0  0  0  0  0  0  0  0
  1  2  1  0
  2  3  1  0
  2  4  1  0
  3  5  2  0
  4  6  2  0
  5  6  1  0
  4  7  1  0
  5  8  1  0
  6  9  1  0
  7 10  2  0
 11  8  1  6
  9 12  2  0
 10 12  1  0
 11 13  1  0
 11 14  1  0
 13 15  2  0
 13 16  1  0
 14 17  2  0
 14 18  1  0
 17 19  1  0
 18 20  2  0
 19 20  1  0
 18 21  1  0
 20 22  1  0
 21 23  2  0
 22 24  2  0
 23 24  1  0
M  END
