mac-x0584-mac-x0375
     RDKit          3D

 30 34  0  0  0  0  0  0  0  0999 V2000
    2.5160   13.5790   -4.0730 O   0  0  0  0  0  0  0  0  0  0  0  0
    2.1740   12.3970   -4.6550 C   0  0  0  0  0  0  0  0  0  0  0  0
    2.9150   11.4300   -4.6400 O   0  0  0  0  0  0  0  0  0  0  0  0
    0.7770   12.4050   -5.2810 C   0  0  2  0  0  0  0  0  0  0  0  0
    0.6760   11.6800   -6.5020 O   0  0  0  0  0  0  0  0  0  0  0  0
    0.2990   13.8120   -5.5610 C   0  0  0  0  0  0  0  0  0  0  0  0
   -0.7430   14.1540   -4.5300 C   0  0  1  0  0  0  0  0  0  0  0  0
   -0.4940   10.9720   -6.6050 C   0  0  0  0  0  0  0  0  0  0  0  0
   -0.2420   14.4380   -3.1100 C   0  0  2  0  0  0  0  0  0  0  0  0
   -1.6990   15.3040   -4.7920 C   0  0  0  0  0  0  0  0  0  0  0  0
   -0.8430   10.2140   -7.7170 C   0  0  0  0  0  0  0  0  0  0  0  0
   -1.3570   11.0280   -5.5060 C   0  0  0  0  0  0  0  0  0  0  0  0
    0.1890   13.2040   -2.3130 C   0  0  0  0  0  0  0  0  0  0  0  0
   -1.4710   14.8830   -2.4850 N   0  0  0  0  0  0  0  0  0  0  0  0
   -2.5060   15.1850   -3.5040 C   0  0  0  0  0  0  0  0  0  0  0  0
   -2.0480    9.5080   -7.7220 C   0  0  0  0  0  0  0  0  0  0  0  0
   -2.5590   10.3250   -5.5140 C   0  0  0  0  0  0  0  0  0  0  0  0
    1.3580   12.3410   -2.8260 C   0  0  0  0  0  0  0  0  0  0  0  0
   -0.7470   11.9660   -2.4540 C   0  0  0  0  0  0  0  0  0  0  0  0
   -1.6780   14.8310   -1.1280 C   0  0  0  0  0  0  0  0  0  0  0  0
   -2.9020    9.5640   -6.6220 C   0  0  0  0  0  0  0  0  0  0  0  0
    0.4680   11.0880   -2.7560 C   0  0  0  0  0  0  0  0  0  0  0  0
   -0.5830   14.6210   -0.3010 N   0  0  0  0  0  0  0  0  0  0  0  0
   -2.8350   14.9880   -0.5030 C   0  0  0  0  0  0  0  0  0  0  0  0
   -0.6800   14.5410    1.0500 C   0  0  0  0  0  0  0  0  0  0  0  0
   -2.8720   14.9270    0.9760 C   0  0  0  0  0  0  0  0  0  0  0  0
   -4.1920   15.2370   -0.8560 C   0  0  0  0  0  0  0  0  0  0  0  0
   -1.7620   14.6760    1.7330 N   0  0  0  0  0  0  0  0  0  0  0  0
   -4.0630   15.1440    1.4380 N   0  0  0  0  0  0  0  0  0  0  0  0
   -4.8370   15.3170    0.3050 C   0  0  0  0  0  0  0  0  0  0  0  0
  1  2  1  0
  2  3  2  0
  2  4  1  0
  4  5  1  0
  4  6  1  6
  7  6  1  6
  5  8  1  0
  7  9  1  0
  7 10  1  0
  8 11  2  0
  8 12  1  0
  9 13  1  1
  9 14  1  0
 10 15  1  0
 14 15  1  0
 11 16  1  0
 12 17  2  0
 13 18  1  0
 13 19  1  0
 14 20  1  0
 16 21  2  0
 17 21  1  0
 18 22  1  0
 19 22  1  0
 20 23  1  0
 20 24  2  0
 23 25  1  0
 24 26  1  0
 24 27  1  0
 25 28  2  0
 26 28  1  0
 26 29  2  0
 27 30  2  0
 29 30  1  0
M  END
