mac-x0361-diamond-x0128_0_A
     RDKit          3D

 25 27  0  0  0  0  0  0  0  0999 V2000
   -7.3390   13.9610   -1.0970 C   0  0  0  0  0  0  0  0  0  0  0  0
   -7.5760   14.3800    0.1230 C   0  0  0  0  0  0  0  0  0  0  0  0
   -6.2990   14.8740    0.4680 C   0  0  0  0  0  0  0  0  0  0  0  0
   -5.9440   14.1850   -1.6090 C   0  0  0  0  0  0  0  0  0  0  0  0
   -4.7750   13.8470   -0.8620 C   0  0  0  0  0  0  0  0  0  0  0  0
   -5.7610   14.7670   -2.8640 C   0  0  0  0  0  0  0  0  0  0  0  0
   -8.8350   14.3600    0.9780 C   0  0  0  0  0  0  0  0  0  0  0  0
   -3.4860   14.0990   -1.3680 C   0  0  0  0  0  0  0  0  0  0  0  0
   -4.4750   15.0090   -3.3590 C   0  0  0  0  0  0  0  0  0  0  0  0
   -5.6850   15.4390   -0.6410 C   0  0  0  0  0  0  0  0  0  0  0  0
   -5.6560   14.8180    1.6810 C   0  0  0  0  0  0  0  0  0  0  0  0
   -8.7280   15.2600    2.1430 N   0  0  0  0  0  0  0  0  0  0  0  0
   -3.3540   14.6840   -2.6200 C   0  0  0  0  0  0  0  0  0  0  0  0
   -4.4210   15.9360   -0.5600 C   0  0  0  0  0  0  0  0  0  0  0  0
   -4.3690   15.3360    1.7520 C   0  0  0  0  0  0  0  0  0  0  0  0
   -7.9490   14.8210    3.0640 C   0  0  0  0  0  0  0  0  0  0  0  0
   -2.1420   14.9640   -3.1770 O   0  0  0  0  0  0  0  0  0  0  0  0
   -3.7620   15.8810    0.6480 C   0  0  0  0  0  0  0  0  0  0  0  0
   -7.5930   15.3530    4.2750 N   0  0  0  0  0  0  0  0  0  0  0  0
   -8.4020   16.0980    5.1650 C   0  0  0  0  0  0  0  0  0  0  0  0
   -9.1270   17.2410    4.8260 C   0  0  0  0  0  0  0  0  0  0  0  0
   -8.5160   15.6940    6.5050 C   0  0  0  0  0  0  0  0  0  0  0  0
   -9.9110   17.9590    5.6730 N   0  0  0  0  0  0  0  0  0  0  0  0
   -9.3110   16.4130    7.4030 C   0  0  0  0  0  0  0  0  0  0  0  0
   -9.9830   17.5280    6.9440 C   0  0  0  0  0  0  0  0  0  0  0  0
  1  2  2  3
  2  3  1  0
  1  4  1  0
  4  5  2  0
  4  6  1  0
  2  7  1  0
  5  8  1  0
  6  9  2  0
  3 10  2  0
  3 11  1  0
  7 12  1  0
  8 13  2  0
  9 13  1  0
 10 14  1  0
 11 15  2  0
 12 16  2  3
 13 17  1  0
 14 18  2  0
 15 18  1  0
 16 19  1  0
 19 20  1  0
 20 21  2  0
 20 22  1  0
 21 23  1  0
 22 24  2  0
 23 25  2  0
 24 25  1  0
M  END
