mac-x0337-mac-x0347
     RDKit          3D

 26 28  0  0  0  0  0  0  0  0999 V2000
   -6.3410    7.7050   -1.9490 C   0  0  0  0  0  0  0  0  0  0  0  0
   -5.8510    9.1140   -2.0850 C   0  0  0  0  0  0  0  0  0  0  0  0
   -6.5770   10.1780   -1.5290 C   0  0  0  0  0  0  0  0  0  0  0  0
   -4.6570    9.3610   -2.7730 C   0  0  0  0  0  0  0  0  0  0  0  0
   -4.1930   10.6590   -2.9080 C   0  0  0  0  0  0  0  0  0  0  0  0
   -6.1140   11.4790   -1.6630 C   0  0  0  0  0  0  0  0  0  0  0  0
   -4.9270   11.6950   -2.3560 C   0  0  0  0  0  0  0  0  0  0  0  0
   -4.3260   13.3230   -2.5420 S   0  0  0  0  0  0  0  0  0  0  0  0
   -4.2440   13.6620   -3.9440 O   0  0  0  0  0  0  0  0  0  0  0  0
   -3.1690   13.3440   -1.6760 O   0  0  0  0  0  0  0  0  0  0  0  0
   -5.4930   14.2450   -1.7800 N   0  0  0  0  0  0  0  0  0  0  0  0
   -5.0980   14.6440   -0.5040 C   0  0  0  0  0  0  0  0  0  0  0  0
   -6.0010   14.6080    0.5460 C   0  0  0  0  0  0  0  0  0  0  0  0
   -3.7740   15.0620   -0.3330 C   0  0  0  0  0  0  0  0  0  0  0  0
   -2.8410   15.0730   -1.4830 C   0  0  0  0  0  0  0  0  0  0  0  0
   -3.3740   15.4550    0.9480 C   0  0  0  0  0  0  0  0  0  0  0  0
   -5.5880   14.9990    1.8040 C   0  0  0  0  0  0  0  0  0  0  0  0
   -1.4890   14.6840   -1.3670 C   0  0  0  0  0  0  0  0  0  0  0  0
   -3.2740   15.4670   -2.7550 C   0  0  0  0  0  0  0  0  0  0  0  0
   -4.2830   15.4220    2.0080 C   0  0  0  0  0  0  0  0  0  0  0  0
   -0.6550   14.7070   -2.4990 C   0  0  0  0  0  0  0  0  0  0  0  0
   -2.4920   15.4990   -3.8660 N   0  0  0  0  0  0  0  0  0  0  0  0
    0.7730   14.3180   -2.4690 C   0  0  0  0  0  0  0  0  0  0  0  0
   -1.1990   15.1170   -3.7130 C   0  0  0  0  0  0  0  0  0  0  0  0
    1.4500   14.5290   -3.6160 O   0  0  0  0  0  0  0  0  0  0  0  0
    1.2970   13.8440   -1.4820 O   0  0  0  0  0  0  0  0  0  0  0  0
  1  2  1  0
  2  3  2  0
  2  4  1  0
  4  5  2  0
  3  6  1  0
  5  7  1  0
  6  7  2  0
  7  8  1  0
  8  9  2  0
  8 10  2  0
  8 11  1  0
 11 12  1  0
 12 13  2  0
 12 14  1  0
 14 15  1  0
 14 16  2  0
 13 17  1  0
 15 18  2  0
 15 19  1  0
 16 20  1  0
 17 20  2  0
 18 21  1  0
 19 22  2  0
 21 23  1  0
 21 24  2  0
 22 24  1  0
 23 25  1  0
 23 26  2  0
M  END
