mac-x0496-mac-x0510
     RDKit          3D

 22 24  0  0  0  0  0  0  0  0999 V2000
   -9.9960   17.8120    4.7340 C   0  0  0  0  0  0  0  0  0  0  0  0
   -9.9520   16.7840    3.6750 C   0  0  0  0  0  0  0  0  0  0  0  0
  -10.9350   16.6110    2.7830 N   0  0  0  0  0  0  0  0  0  0  0  0
   -8.8970   15.9270    3.5350 N   0  0  0  0  0  0  0  0  0  0  0  0
  -10.4720   15.5600    1.9860 O   0  0  0  0  0  0  0  0  0  0  0  0
   -9.2510   15.2020    2.4990 C   0  0  0  0  0  0  0  0  0  0  0  0
   -8.5200   14.0830    1.8450 C   0  0  0  0  0  0  0  0  0  0  0  0
   -7.1020   14.4100    1.6980 N   0  0  0  0  0  0  0  0  0  0  0  0
   -6.5990   14.6830    0.4350 C   0  0  0  0  0  0  0  0  0  0  0  0
   -7.3370   14.8850   -0.5220 O   0  0  0  0  0  0  0  0  0  0  0  0
   -5.1140   14.7310    0.2320 C   0  0  0  0  0  0  0  0  0  0  0  0
   -4.1920   14.6730    1.2980 C   0  0  0  0  0  0  0  0  0  0  0  0
   -4.6490   14.8330   -1.0900 C   0  0  0  0  0  0  0  0  0  0  0  0
   -2.8150   14.7080    1.0100 C   0  0  0  0  0  0  0  0  0  0  0  0
   -3.2770   14.8740   -1.3730 C   0  0  0  0  0  0  0  0  0  0  0  0
   -2.7690   14.9810   -2.7500 C   0  0  0  0  0  0  0  0  0  0  0  0
   -2.4020   14.8060   -0.3030 C   0  0  0  0  0  0  0  0  0  0  0  0
   -1.7120   14.6560    1.8340 N   0  0  0  0  0  0  0  0  0  0  0  0
   -1.6090   14.8150   -3.0770 O   0  0  0  0  0  0  0  0  0  0  0  0
   -3.7050   15.2990   -3.6600 O   0  0  0  0  0  0  0  0  0  0  0  0
   -1.0280   14.8140   -0.2520 N   0  0  0  0  0  0  0  0  0  0  0  0
   -0.6590   14.7250    1.0490 C   0  0  0  0  0  0  0  0  0  0  0  0
  1  2  1  0
  2  3  2  0
  2  4  1  0
  3  5  1  0
  4  6  2  0
  5  6  1  0
  6  7  1  0
  7  8  1  0
  8  9  1  0
  9 10  2  0
  9 11  1  0
 11 12  2  0
 11 13  1  0
 12 14  1  0
 13 15  2  0
 15 16  1  0
 14 17  2  0
 15 17  1  0
 14 18  1  0
 16 19  2  0
 16 20  1  0
 17 21  1  0
 18 22  2  0
 21 22  1  0
M  END
