mac-x0116-mac-x0415
     RDKit          3D

 31 35  0  0  0  0  0  0  0  0999 V2000
   -6.0230   14.8170    1.6320 C   0  0  0  0  0  0  0  0  0  0  0  0
   -4.6310   15.2430    1.7190 N   0  0  0  0  0  0  0  0  0  0  0  0
   -3.8630   15.0400    0.5660 C   0  0  0  0  0  0  0  0  0  0  0  0
   -6.3460   13.3630    1.6700 C   0  0  0  0  0  0  0  0  0  0  0  0
   -6.2700   12.6690    0.4950 O   0  0  0  0  0  0  0  0  0  0  0  0
   -6.7430   12.5280    2.6880 C   0  0  0  0  0  0  0  0  0  0  0  0
   -6.9260   11.2610    2.1140 C   0  0  0  0  0  0  0  0  0  0  0  0
   -6.6250   11.3950    0.7790 C   0  0  0  0  0  0  0  0  0  0  0  0
   -4.4010   15.2020   -0.6710 N   0  0  0  0  0  0  0  0  0  0  0  0
   -2.5190   14.6580    0.6420 C   0  0  0  0  0  0  0  0  0  0  0  0
   -3.6260   14.9770   -1.7550 C   0  0  0  0  0  0  0  0  0  0  0  0
   -1.8380   14.4490   -0.5560 C   0  0  0  0  0  0  0  0  0  0  0  0
   -1.7130   14.4340    1.7280 N   0  0  0  0  0  0  0  0  0  0  0  0
   -2.3310   14.5910   -1.7950 N   0  0  0  0  0  0  0  0  0  0  0  0
   -0.5860   14.0640   -0.1510 N   0  0  0  0  0  0  0  0  0  0  0  0
   -0.5670   14.0850    1.2170 C   0  0  0  0  0  0  0  0  0  0  0  0
    0.5870   13.6660   -0.9060 C   0  0  0  0  0  0  0  0  0  0  0  0
    0.6580   13.7140   -2.3390 N   0  0  0  0  0  0  0  0  0  0  0  0
    0.7140   12.6970   -3.1360 C   0  0  0  0  0  0  0  0  0  0  0  0
    0.6630   11.4260   -2.6680 O   0  0  0  0  0  0  0  0  0  0  0  0
    0.8440   12.8750   -4.6220 C   0  0  0  0  0  0  0  0  0  0  0  0
    0.6490   14.3280   -4.6430 C   0  0  0  0  0  0  0  0  0  0  0  0
    1.6920   15.3390   -4.4850 C   0  0  0  0  0  0  0  0  0  0  0  0
   -0.4100   15.0940   -4.7880 C   0  0  0  0  0  0  0  0  0  0  0  0
    1.3460   16.5920   -4.5140 N   0  0  0  0  0  0  0  0  0  0  0  0
   -0.0860   16.5260   -4.6170 C   0  0  1  0  0  0  0  0  0  0  0  0
   -1.7670   14.7440   -5.0370 C   0  0  0  0  0  0  0  0  0  0  0  0
   -0.8670   17.4510   -5.4740 C   0  0  0  0  0  0  0  0  0  0  0  0
   -2.5650   15.6740   -5.5930 C   0  0  0  0  0  0  0  0  0  0  0  0
   -4.3220   15.2180   -6.0020 Br  0  0  0  0  0  0  0  0  0  0  0  0
   -2.0700   17.0290   -5.9230 C   0  0  0  0  0  0  0  0  0  0  0  0
  1  2  1  0
  2  3  1  0
  1  4  1  0
  4  5  1  0
  4  6  2  0
  6  7  1  0
  5  8  1  0
  7  8  2  0
  3  9  2  0
  3 10  1  0
  9 11  1  0
 10 12  2  0
 10 13  1  0
 11 14  2  0
 12 14  1  0
 12 15  1  0
 13 16  2  0
 15 16  1  0
 15 17  1  0
 17 18  1  0
 18 19  2  3
 19 20  1  0
 19 21  1  0
 21 22  1  0
 22 23  1  0
 22 24  2  0
 23 25  2  0
 24 26  1  0
 25 26  1  0
 24 27  1  0
 26 28  1  6
 27 29  2  0
 29 30  1  0
 28 31  2  0
 29 31  1  0
M  END
