mac-x0568-mac-x0439
     RDKit          3D

 25 27  0  0  0  0  0  0  0  0999 V2000
   -8.5990   14.6060    1.6040 C   0  0  0  0  0  0  0  0  0  0  0  0
   -7.2580   14.6490    0.9410 C   0  0  0  0  0  0  0  0  0  0  0  0
   -6.0990   14.6310    1.7100 C   0  0  0  0  0  0  0  0  0  0  0  0
   -7.2440   14.7100   -0.4050 N   0  0  0  0  0  0  0  0  0  0  0  0
   -6.0280   14.7480   -0.9940 C   0  0  0  0  0  0  0  0  0  0  0  0
   -4.8560   14.6700    1.0760 C   0  0  0  0  0  0  0  0  0  0  0  0
   -4.8260   14.7270   -0.3080 C   0  0  0  0  0  0  0  0  0  0  0  0
   -3.5670   14.7590   -1.0870 C   0  0  0  0  0  0  0  0  0  0  0  0
   -3.8040   14.6200   -2.3340 N   0  0  0  0  0  0  0  0  0  0  0  0
   -2.3550   14.9140   -0.4590 N   0  0  0  0  0  0  0  0  0  0  0  0
   -2.8170   14.6180   -3.3830 C   0  0  0  0  0  0  0  0  0  0  0  0
   -3.4720   15.5860   -4.3430 C   0  0  0  0  0  0  0  0  0  0  0  0
   -2.7930   15.8600   -5.6660 C   0  0  0  0  0  0  0  0  0  0  0  0
   -1.5980   16.7760   -5.6420 C   0  0  0  0  0  0  0  0  0  0  0  0
   -0.6180   16.5530   -4.5630 C   0  0  1  0  0  0  0  0  0  0  0  0
   -1.3140   17.8000   -6.4690 C   0  0  0  0  0  0  0  0  0  0  0  0
   -0.3690   15.2940   -3.7990 C   0  0  0  0  0  0  0  0  0  0  0  0
    0.7760   16.9190   -4.8310 C   0  0  0  0  0  0  0  0  0  0  0  0
   -0.0830   18.5660   -6.3450 C   0  0  0  0  0  0  0  0  0  0  0  0
    0.9500   15.1290   -3.6750 C   0  0  0  0  0  0  0  0  0  0  0  0
    1.6540   16.1120   -4.3130 N   0  0  0  0  0  0  0  0  0  0  0  0
    0.9640   18.1760   -5.5850 C   0  0  0  0  0  0  0  0  0  0  0  0
    1.6190   14.0230   -2.9260 C   0  0  0  0  0  0  0  0  0  0  0  0
    2.9420   14.2270   -2.7140 O   0  0  0  0  0  0  0  0  0  0  0  0
    1.0950   13.0120   -2.4990 O   0  0  0  0  0  0  0  0  0  0  0  0
  1  2  1  0
  2  3  2  0
  2  4  1  0
  4  5  2  0
  3  6  1  0
  5  7  1  0
  6  7  2  0
  7  8  1  0
  8  9  2  3
  8 10  1  0
  9 11  1  0
 11 12  1  0
 12 13  1  0
 13 14  1  0
 14 15  1  0
 14 16  2  0
 15 17  1  6
 15 18  1  0
 16 19  1  0
 17 20  2  0
 18 21  2  0
 20 21  1  0
 18 22  1  0
 19 22  2  0
 20 23  1  0
 23 24  1  0
 23 25  2  0
M  END
