mac-x0263-mac-x0206
     RDKit          3D

 18 19  0  0  0  0  0  0  0  0999 V2000
  -11.3020   13.7270    1.8230 O   0  0  0  0  0  0  0  0  0  0  0  0
  -10.6240   14.8210    2.2040 C   0  0  0  0  0  0  0  0  0  0  0  0
  -11.1620   15.6350    2.9680 O   0  0  0  0  0  0  0  0  0  0  0  0
   -9.2240   14.9080    1.5960 C   0  0  0  0  0  0  0  0  0  0  0  0
   -8.7430   13.6910    0.7270 C   0  0  0  0  0  0  0  0  0  0  0  0
   -7.1800   13.5960    0.6140 C   0  0  1  0  0  0  0  0  0  0  0  0
   -6.3680   13.4520   -0.6410 N   0  0  0  0  0  0  0  0  0  0  0  0
   -6.7240   14.9350    0.9330 N   0  0  0  0  0  0  0  0  0  0  0  0
   -6.3690   14.1590   -1.8130 C   0  0  0  0  0  0  0  0  0  0  0  0
   -7.4490   15.5890   -0.1850 O   0  0  0  0  0  0  0  0  0  0  0  0
   -5.0680   13.6420   -0.0640 C   0  0  2  0  0  0  0  0  0  0  0  0
   -5.3410   15.0410    0.4240 C   0  0  2  0  0  0  0  0  0  0  0  0
   -5.2140   14.8030   -2.1320 N   0  0  0  0  0  0  0  0  0  0  0  0
   -7.3010   14.2420   -2.5820 O   0  0  0  0  0  0  0  0  0  0  0  0
   -3.8940   13.8050   -0.9780 C   0  0  0  0  0  0  0  0  0  0  0  0
   -4.1980   15.5220    1.2430 C   0  0  0  0  0  0  0  0  0  0  0  0
   -2.8960   14.6240   -0.5870 C   0  0  0  0  0  0  0  0  0  0  0  0
   -2.9880   15.3030    0.7050 C   0  0  0  0  0  0  0  0  0  0  0  0
  1  2  1  0
  2  3  2  0
  2  4  1  0
  4  5  1  0
  6  5  1  6
  6  7  1  0
  6  8  1  0
  7  9  1  0
  8 10  1  0
  7 11  1  0
  8 12  1  0
 11 12  1  0
  9 13  1  0
  9 14  2  0
 11 15  1  6
 12 16  1  1
 15 17  2  0
 16 18  2  0
 17 18  1  0
M  END
