mac-x0397-mac-x0204
     RDKit          3D

 23 25  0  0  0  0  0  0  0  0999 V2000
   -6.7660   15.1850   -2.3090 Cl  0  0  0  0  0  0  0  0  0  0  0  0
   -5.2180   15.0240   -1.6180 C   0  0  0  0  0  0  0  0  0  0  0  0
   -5.1820   14.9470   -0.2330 C   0  0  0  0  0  0  0  0  0  0  0  0
   -4.0630   14.9670   -2.3610 C   0  0  0  0  0  0  0  0  0  0  0  0
   -6.2530   14.9790    0.6210 N   0  0  0  0  0  0  0  0  0  0  0  0
   -3.9410   14.8210    0.3760 C   0  0  0  0  0  0  0  0  0  0  0  0
   -2.8490   14.8260   -1.7010 C   0  0  0  0  0  0  0  0  0  0  0  0
   -5.8410   14.8970    1.8430 C   0  0  0  0  0  0  0  0  0  0  0  0
   -4.1480   14.7640    2.0470 S   0  0  0  0  0  0  0  0  0  0  0  0
   -2.7620   14.7550   -0.3280 C   0  0  0  0  0  0  0  0  0  0  0  0
   -1.6340   14.7430   -2.4920 C   0  0  0  0  0  0  0  0  0  0  0  0
   -6.6930   14.9220    2.8740 N   0  0  0  0  0  0  0  0  0  0  0  0
   -0.2900   14.5480   -1.8010 C   0  0  0  0  0  0  0  0  0  0  0  0
    0.5000   14.0510   -2.9690 C   0  0  0  0  0  0  0  0  0  0  0  0
    1.1140   12.8100   -2.6810 O   0  0  0  0  0  0  0  0  0  0  0  0
    1.5000   15.0080   -3.2650 O   0  0  0  0  0  0  0  0  0  0  0  0
   -0.6190   14.0120   -3.9970 C   0  0  0  0  0  0  0  0  0  0  0  0
   -1.1760   15.1900   -4.5470 C   0  0  0  0  0  0  0  0  0  0  0  0
   -1.1790   12.8010   -4.4220 C   0  0  0  0  0  0  0  0  0  0  0  0
   -2.2300   15.1040   -5.4480 C   0  0  0  0  0  0  0  0  0  0  0  0
   -2.2020   12.6950   -5.3040 N   0  0  0  0  0  0  0  0  0  0  0  0
   -2.8060   16.2120   -5.9970 O   0  0  0  0  0  0  0  0  0  0  0  0
   -2.7070   13.8510   -5.7950 C   0  0  0  0  0  0  0  0  0  0  0  0
  1  2  1  0
  2  3  2  0
  2  4  1  0
  3  5  1  0
  3  6  1  0
  4  7  2  0
  5  8  2  0
  6  9  1  0
  8  9  1  0
  6 10  2  0
  7 10  1  0
  7 11  1  0
  8 12  1  0
 11 13  1  0
 13 14  1  0
 14 15  1  0
 14 16  1  0
 14 17  1  0
 17 18  2  0
 17 19  1  0
 18 20  1  0
 19 21  2  0
 20 22  1  0
 20 23  2  0
 21 23  1  0
M  END
