mac-x0161-mac-x0348
     RDKit          3D

 32 36  0  0  0  0  0  0  0  0999 V2000
   -4.3110   15.5440    1.1800 N   0  0  0  0  0  0  0  0  0  0  0  0
   -3.5760   14.8410    0.1320 C   0  0  2  0  0  0  0  0  0  0  0  0
   -2.1580   14.3970    0.5490 C   0  0  1  0  0  0  0  0  0  0  0  0
   -3.5790   15.7170   -1.0090 N   0  0  0  0  0  0  0  0  0  0  0  0
   -2.8290   15.1790   -2.1530 C   0  0  0  0  0  0  0  0  0  0  0  0
   -1.2850   14.0710   -0.6630 C   0  0  1  0  0  0  0  0  0  0  0  0
   -1.3800   15.4340    1.2160 N   0  0  0  0  0  0  0  0  0  0  0  0
   -1.4130   14.9280   -1.8250 N   0  0  0  0  0  0  0  0  0  0  0  0
    0.0670   14.2060   -0.1560 N   0  0  0  0  0  0  0  0  0  0  0  0
   -0.0410   14.8870    1.1160 C   0  0  0  0  0  0  0  0  0  0  0  0
   -0.3420   14.6800   -2.9350 C   0  0  1  0  0  0  0  0  0  0  0  0
    1.0500   14.1870   -2.4610 C   0  0  0  0  0  0  0  0  0  0  0  0
   -0.5860   13.3450   -3.6410 C   0  0  0  0  0  0  0  0  0  0  0  0
   -0.2140   15.9790   -3.7950 C   0  0  1  0  0  0  0  0  0  0  0  0
    1.0940   12.7190   -2.1600 C   0  0  0  0  0  0  0  0  0  0  0  0
   -0.8830   12.8520   -4.8970 C   0  0  0  0  0  0  0  0  0  0  0  0
   -0.4590   12.2860   -2.7940 O   0  0  0  0  0  0  0  0  0  0  0  0
    0.6710   16.1140   -5.0450 C   0  0  0  0  0  0  0  0  0  0  0  0
   -1.5420   16.4840   -4.2700 C   0  0  1  0  0  0  0  0  0  0  0  0
    0.6570   12.3190   -1.1080 O   0  0  0  0  0  0  0  0  0  0  0  0
    1.5640   11.8730   -3.0890 O   0  0  0  0  0  0  0  0  0  0  0  0
   -0.6450   11.1070   -3.4520 N   0  0  0  0  0  0  0  0  0  0  0  0
   -0.8940   11.4510   -4.7040 C   0  0  0  0  0  0  0  0  0  0  0  0
    0.1490   17.3130   -5.7350 N   0  0  0  0  0  0  0  0  0  0  0  0
   -1.1310   17.6770   -5.1510 C   0  0  1  0  0  0  0  0  0  0  0  0
   -2.4550   15.4610   -4.8700 C   0  0  0  0  0  0  0  0  0  0  0  0
   -1.1170   10.5050   -5.6310 O   0  0  0  0  0  0  0  0  0  0  0  0
    1.0920   18.3980   -5.8090 C   0  0  0  0  0  0  0  0  0  0  0  0
   -3.2270   15.7830   -5.8650 C   0  0  0  0  0  0  0  0  0  0  0  0
   -2.2290   17.9990   -6.0620 C   0  0  0  0  0  0  0  0  0  0  0  0
   -2.3620   10.6090   -6.2960 C   0  0  0  0  0  0  0  0  0  0  0  0
   -3.1620   17.1160   -6.3450 C   0  0  0  0  0  0  0  0  0  0  0  0
  2  1  1  1
  2  3  1  0
  2  4  1  0
  4  5  1  0
  3  6  1  0
  3  7  1  6
  5  8  1  0
  6  8  1  0
  6  9  1  1
  7 10  1  0
  9 10  1  0
  8 11  1  0
 11 12  1  1
 11 13  1  0
 11 14  1  0
 12 15  1  0
 13 16  2  0
 13 17  1  0
 14 18  1  6
 14 19  1  0
 15 20  2  0
 15 21  1  0
 17 22  1  0
 16 23  1  0
 22 23  2  0
 18 24  1  0
 19 25  1  0
 24 25  1  0
 19 26  1  6
 23 27  1  0
 24 28  1  0
 26 29  2  0
 25 30  1  6
 27 31  1  0
 29 32  1  0
 30 32  2  0
M  END
