mac-x0148-diamond-x0864_0_A
     RDKit          3D

 29 33  0  0  0  0  0  0  0  0999 V2000
    1.1390   12.1790   -6.5640 O   0  0  0  0  0  0  0  0  0  0  0  0
    0.1780   11.4520   -6.3290 C   0  0  0  0  0  0  0  0  0  0  0  0
   -0.4230   11.2450   -5.0780 N   0  0  0  0  0  0  0  0  0  0  0  0
   -0.4360   10.6540   -7.4180 C   0  0  0  0  0  0  0  0  0  0  0  0
   -1.1720   12.2330   -4.3190 C   0  0  2  0  0  0  0  0  0  0  0  0
   -0.9040   10.0120   -4.7770 C   0  0  0  0  0  0  0  0  0  0  0  0
   -1.1350    9.5540   -7.0920 C   0  0  0  0  0  0  0  0  0  0  0  0
   -1.9700    8.4470   -8.3350 Br  0  0  0  0  0  0  0  0  0  0  0  0
   -1.3130   13.6610   -4.7460 C   0  0  1  0  0  0  0  0  0  0  0  0
   -0.8060   12.1710   -2.8510 C   0  0  0  0  0  0  0  0  0  0  0  0
   -1.2670    9.1690   -5.7220 C   0  0  0  0  0  0  0  0  0  0  0  0
   -2.4420   13.8830   -5.7170 C   0  0  0  0  0  0  0  0  0  0  0  0
   -1.8270   14.4440   -3.5270 C   0  0  2  0  0  0  0  0  0  0  0  0
    0.0470   13.3740   -2.4310 C   0  0  2  0  0  0  0  0  0  0  0  0
   -2.8550   15.2470   -5.5160 O   0  0  0  0  0  0  0  0  0  0  0  0
   -2.3360   15.6860   -4.2350 C   0  0  0  0  0  0  0  0  0  0  0  0
   -0.8040   14.5610   -2.4360 N   0  0  0  0  0  0  0  0  0  0  0  0
    1.2440   13.4460   -3.2190 N   0  0  0  0  0  0  0  0  0  0  0  0
   -1.1660   14.6900   -1.1050 C   0  0  0  0  0  0  0  0  0  0  0  0
    1.7260   12.3200   -3.4010 C   0  0  0  0  0  0  0  0  0  0  0  0
   -0.1830   14.5860   -0.1370 N   0  0  0  0  0  0  0  0  0  0  0  0
   -2.4030   14.9010   -0.6450 C   0  0  0  0  0  0  0  0  0  0  0  0
    1.0790   11.2750   -2.8710 O   0  0  0  0  0  0  0  0  0  0  0  0
   -0.4730   14.5620    1.1910 C   0  0  0  0  0  0  0  0  0  0  0  0
   -2.6270   14.9680    0.8110 C   0  0  0  0  0  0  0  0  0  0  0  0
   -3.7010   15.1110   -1.1950 C   0  0  0  0  0  0  0  0  0  0  0  0
   -1.6300   14.7280    1.7100 N   0  0  0  0  0  0  0  0  0  0  0  0
   -3.8560   15.2590    1.1040 N   0  0  0  0  0  0  0  0  0  0  0  0
   -4.4860   15.3350   -0.1300 C   0  0  0  0  0  0  0  0  0  0  0  0
  1  2  2  0
  2  3  1  0
  2  4  1  0
  5  3  1  6
  3  6  1  0
  4  7  2  0
  7  8  1  0
  5  9  1  0
  5 10  1  0
  6 11  2  0
  7 11  1  0
  9 12  1  6
  9 13  1  0
 10 14  1  0
 12 15  1  0
 13 16  1  6
 15 16  1  0
 13 17  1  0
 14 17  1  0
 14 18  1  6
 17 19  1  0
 18 20  2  3
 19 21  1  0
 19 22  2  0
 20 23  1  0
 21 24  1  0
 22 25  1  0
 22 26  1  0
 24 27  2  0
 25 27  1  0
 25 28  2  0
 26 29  2  0
 28 29  1  0
M  END
