mac-x1493-mac-x0333
     RDKit          3D

 13 14  0  0  0  0  0  0  0  0999 V2000
   -1.2290   14.7300   -1.6070 O   0  0  0  0  0  0  0  0  0  0  0  0
   -2.3030   14.9060   -2.3980 C   0  0  0  0  0  0  0  0  0  0  0  0
   -2.1850   15.0840   -3.5960 O   0  0  0  0  0  0  0  0  0  0  0  0
   -3.5710   14.8540   -1.6550 C   0  0  0  0  0  0  0  0  0  0  0  0
   -3.6620   14.9690   -0.2690 C   0  0  0  0  0  0  0  0  0  0  0  0
   -4.7450   14.6730   -2.3670 C   0  0  0  0  0  0  0  0  0  0  0  0
   -4.9150   14.8870    0.3480 C   0  0  0  0  0  0  0  0  0  0  0  0
   -5.9690   14.5900   -1.8000 N   0  0  0  0  0  0  0  0  0  0  0  0
   -6.0550   14.6900   -0.4670 C   0  0  0  0  0  0  0  0  0  0  0  0
   -5.0650   14.9870    1.7350 C   0  0  0  0  0  0  0  0  0  0  0  0
   -7.3000   14.5960    0.1390 C   0  0  0  0  0  0  0  0  0  0  0  0
   -6.3280   14.8880    2.3180 C   0  0  0  0  0  0  0  0  0  0  0  0
   -7.4490   14.6900    1.5210 C   0  0  0  0  0  0  0  0  0  0  0  0
  1  2  1  0
  2  3  2  0
  2  4  1  0
  4  5  2  0
  4  6  1  0
  5  7  1  0
  6  8  2  0
  7  9  2  0
  8  9  1  0
  7 10  1  0
  9 11  1  0
 10 12  2  0
 11 13  2  0
 12 13  1  0
M  END
