mac-x0303-mac-x0397
     RDKit          3D

 14 15  0  0  0  0  0  0  0  0999 V2000
   -8.4510   12.9350    2.7950 N   0  0  0  0  0  0  0  0  0  0  0  0
   -8.5570   14.4930    2.1730 S   0  0  0  0  0  0  0  0  0  0  0  0
   -8.3520   15.4300    3.2480 O   0  0  0  0  0  0  0  0  0  0  0  0
   -9.6950   14.5680    1.2880 O   0  0  0  0  0  0  0  0  0  0  0  0
   -7.1430   14.6820    1.1380 C   0  0  0  0  0  0  0  0  0  0  0  0
   -7.2150   14.6890   -0.2200 N   0  0  0  0  0  0  0  0  0  0  0  0
   -5.8940   14.8380    1.5510 N   0  0  0  0  0  0  0  0  0  0  0  0
   -5.9470   14.8570   -0.6980 C   0  0  0  0  0  0  0  0  0  0  0  0
   -5.1400   14.9480    0.4160 C   0  0  0  0  0  0  0  0  0  0  0  0
   -5.4630   14.9310   -1.9760 C   0  0  0  0  0  0  0  0  0  0  0  0
   -3.7580   15.1250    0.2540 C   0  0  0  0  0  0  0  0  0  0  0  0
   -6.5570   14.7900   -3.2660 Cl  0  0  0  0  0  0  0  0  0  0  0  0
   -4.0940   15.1090   -2.1560 C   0  0  0  0  0  0  0  0  0  0  0  0
   -3.2500   15.2020   -1.0510 C   0  0  0  0  0  0  0  0  0  0  0  0
  2  1  1  0
  2  3  2  0
  2  4  2  0
  2  5  1  0
  5  6  1  0
  5  7  2  0
  6  8  1  0
  7  9  1  0
  8  9  2  0
  8 10  1  0
  9 11  1  0
 10 12  1  0
 10 13  2  0
 11 14  2  0
 13 14  1  0
M  END
