mac-x0496-diamond-x0282_0_A
     RDKit          3D

 24 26  0  0  0  0  0  0  0  0999 V2000
   -9.6760   17.7170    4.7060 C   0  0  0  0  0  0  0  0  0  0  0  0
   -9.6480   16.7480    3.5860 C   0  0  0  0  0  0  0  0  0  0  0  0
  -10.3320   16.8910    2.4380 N   0  0  0  0  0  0  0  0  0  0  0  0
   -8.9020   15.6160    3.6490 N   0  0  0  0  0  0  0  0  0  0  0  0
  -10.0120   15.7660    1.7020 O   0  0  0  0  0  0  0  0  0  0  0  0
   -9.1520   15.0590    2.4820 C   0  0  0  0  0  0  0  0  0  0  0  0
   -8.6330   13.8030    1.9160 C   0  0  0  0  0  0  0  0  0  0  0  0
   -7.2320   14.0130    1.6450 N   0  0  0  0  0  0  0  0  0  0  0  0
   -6.7990   14.5330    0.4480 C   0  0  0  0  0  0  0  0  0  0  0  0
   -7.5490   15.1000   -0.3370 O   0  0  0  0  0  0  0  0  0  0  0  0
   -5.3150   14.3350    0.1380 C   0  0  2  0  0  0  0  0  0  0  0  0
   -4.4950   14.1090    1.3510 C   0  0  0  0  0  0  0  0  0  0  0  0
   -4.6230   15.3390   -0.7830 C   0  0  0  0  0  0  0  0  0  0  0  0
   -3.1560   14.1270    1.3200 C   0  0  0  0  0  0  0  0  0  0  0  0
   -3.2540   14.7480   -1.1370 C   0  0  1  0  0  0  0  0  0  0  0  0
   -2.6580   15.1870   -2.4580 C   0  0  0  0  0  0  0  0  0  0  0  0
   -2.3140   14.3850    0.0800 C   0  0  2  0  0  0  0  0  0  0  0  0
   -1.4670   15.2100   -2.7190 O   0  0  0  0  0  0  0  0  0  0  0  0
   -3.5410   15.5570   -3.4030 O   0  0  0  0  0  0  0  0  0  0  0  0
   -1.5530   13.2170   -0.3370 N   0  0  0  0  0  0  0  0  0  0  0  0
   -1.4370   15.3840    0.6890 N   0  0  0  0  0  0  0  0  0  0  0  0
   -0.3510   13.5880   -1.0890 C   0  0  0  0  0  0  0  0  0  0  0  0
   -0.0740   15.3640    0.5220 C   0  0  0  0  0  0  0  0  0  0  0  0
    0.4970   14.5300   -0.3310 C   0  0  0  0  0  0  0  0  0  0  0  0
  1  2  1  0
  2  3  2  0
  2  4  1  0
  3  5  1  0
  4  6  2  0
  5  6  1  0
  6  7  1  0
  7  8  1  0
  8  9  1  0
  9 10  2  0
 11  9  1  1
 11 12  1  0
 11 13  1  0
 12 14  2  0
 13 15  1  0
 15 16  1  6
 17 14  1  1
 15 17  1  0
 16 18  2  0
 16 19  1  0
 17 20  1  0
 17 21  1  0
 20 22  1  0
 21 23  1  0
 22 24  1  0
 23 24  2  0
M  END
