mac-x0496-mac-x0415
     RDKit          3D

 34 37  0  0  0  0  0  0  0  0999 V2000
  -10.0050   17.8500    4.7520 C   0  0  0  0  0  0  0  0  0  0  0  0
   -9.9950   16.8240    3.6900 C   0  0  0  0  0  0  0  0  0  0  0  0
  -10.9690   16.7000    2.7730 N   0  0  0  0  0  0  0  0  0  0  0  0
   -8.9870   15.9150    3.5650 N   0  0  0  0  0  0  0  0  0  0  0  0
  -10.5420   15.6280    1.9860 O   0  0  0  0  0  0  0  0  0  0  0  0
   -9.3520   15.2080    2.5250 C   0  0  0  0  0  0  0  0  0  0  0  0
   -8.6660   14.0570    1.8890 C   0  0  0  0  0  0  0  0  0  0  0  0
   -7.2550   14.3510    1.6890 N   0  0  0  0  0  0  0  0  0  0  0  0
   -6.8050   14.6750    0.4290 C   0  0  0  0  0  0  0  0  0  0  0  0
   -7.5500   14.8670   -0.5210 O   0  0  0  0  0  0  0  0  0  0  0  0
   -5.3360   14.7810    0.2550 C   0  0  0  0  0  0  0  0  0  0  0  0
   -4.5510   14.9510    1.3980 C   0  0  0  0  0  0  0  0  0  0  0  0
   -4.7350   14.7120   -1.0030 C   0  0  0  0  0  0  0  0  0  0  0  0
   -3.1720   15.0390    1.3010 C   0  0  0  0  0  0  0  0  0  0  0  0
   -3.3480   14.8040   -1.1040 C   0  0  0  0  0  0  0  0  0  0  0  0
   -2.6400   14.7320   -2.4050 C   0  0  0  0  0  0  0  0  0  0  0  0
   -2.5660   14.9650    0.0510 C   0  0  0  0  0  0  0  0  0  0  0  0
   -1.5200   15.1670   -2.5550 O   0  0  0  0  0  0  0  0  0  0  0  0
   -3.3940   14.1080   -3.3420 O   0  0  0  0  0  0  0  0  0  0  0  0
   -4.3770   14.8710   -4.0320 C   0  0  0  0  0  0  0  0  0  0  0  0
   -3.8770   15.4750   -5.2610 O   0  0  0  0  0  0  0  0  0  0  0  0
   -2.5130   15.6510   -5.1760 C   0  0  0  0  0  0  0  0  0  0  0  0
   -1.9680   16.9500   -5.5990 C   0  0  0  0  0  0  0  0  0  0  0  0
   -1.7200   14.6570   -4.7200 C   0  0  0  0  0  0  0  0  0  0  0  0
   -0.3210   14.9050   -4.6020 C   0  0  0  0  0  0  0  0  0  0  0  0
   -0.7080   17.2940   -5.2640 C   0  0  0  0  0  0  0  0  0  0  0  0
    0.7320   14.1000   -4.5620 C   0  0  0  0  0  0  0  0  0  0  0  0
    0.0680   16.3260   -4.4340 C   0  0  2  0  0  0  0  0  0  0  0  0
    0.9420   12.6470   -4.6070 C   0  0  0  0  0  0  0  0  0  0  0  0
    1.8040   15.0770   -4.4570 C   0  0  0  0  0  0  0  0  0  0  0  0
    1.4980   16.3330   -4.4370 N   0  0  0  0  0  0  0  0  0  0  0  0
    0.8000   12.1320   -3.1900 C   0  0  0  0  0  0  0  0  0  0  0  0
    0.1190   10.9710   -3.0800 O   0  0  0  0  0  0  0  0  0  0  0  0
    1.2580   12.7020   -2.2070 O   0  0  0  0  0  0  0  0  0  0  0  0
  1  2  1  0
  2  3  2  0
  2  4  1  0
  3  5  1  0
  4  6  2  0
  5  6  1  0
  6  7  1  0
  7  8  1  0
  8  9  1  0
  9 10  2  0
  9 11  1  0
 11 12  2  0
 11 13  1  0
 12 14  1  0
 13 15  2  0
 15 16  1  0
 14 17  2  0
 15 17  1  0
 16 18  2  0
 16 19  1  0
 19 20  1  0
 20 21  1  0
 21 22  1  0
 22 23  1  0
 22 24  2  0
 24 25  1  0
 23 26  2  0
 25 27  2  0
 25 28  1  0
 28 26  1  6
 27 29  1  0
 27 30  1  0
 28 31  1  0
 30 31  2  0
 29 32  1  0
 32 33  1  0
 32 34  2  0
M  END
