mac-x0182-diamond-x0689_0_A
     RDKit          3D

 22 24  0  0  0  0  0  0  0  0999 V2000
    1.7010   11.8650   -6.9860 O   0  0  0  0  0  0  0  0  0  0  0  0
    0.7600   11.5560   -6.2980 C   0  0  0  0  0  0  0  0  0  0  0  0
    0.4890   12.0850   -5.0660 N   0  0  0  0  0  0  0  0  0  0  0  0
   -0.2200   10.5120   -6.6850 C   0  0  0  0  0  0  0  0  0  0  0  0
   -0.6900   11.1870   -4.2820 S   0  0  2  0  0  0  0  0  0  0  0  0
   -1.0940   10.2040   -5.6490 C   0  0  0  0  0  0  0  0  0  0  0  0
   -0.3230    9.8620   -7.9030 C   0  0  0  0  0  0  0  0  0  0  0  0
   -1.7790   12.2270   -4.0470 N   0  0  0  0  0  0  0  0  0  0  0  0
   -0.0070   10.3900   -3.2940 O   0  0  0  0  0  0  0  0  0  0  0  0
   -2.0950    9.2590   -5.7630 C   0  0  0  0  0  0  0  0  0  0  0  0
   -1.3300    8.8960   -8.0510 C   0  0  0  0  0  0  0  0  0  0  0  0
   -2.0200   12.6990   -2.6630 C   0  0  0  0  0  0  0  0  0  0  0  0
   -2.2070    8.5990   -6.9870 C   0  0  0  0  0  0  0  0  0  0  0  0
   -1.2090   13.9550   -2.3070 C   0  0  0  0  0  0  0  0  0  0  0  0
   -1.2330   14.2290   -0.8300 C   0  0  0  0  0  0  0  0  0  0  0  0
   -2.4350   14.5670   -0.3170 N   0  0  0  0  0  0  0  0  0  0  0  0
   -0.1050   14.1360   -0.0480 C   0  0  0  0  0  0  0  0  0  0  0  0
   -2.5040   14.8100    0.9960 C   0  0  0  0  0  0  0  0  0  0  0  0
   -0.2920   14.4020    1.2850 C   0  0  0  0  0  0  0  0  0  0  0  0
   -3.7030   15.1710    1.5880 N   0  0  0  0  0  0  0  0  0  0  0  0
   -1.4660   14.7350    1.8130 N   0  0  0  0  0  0  0  0  0  0  0  0
   -4.7870   15.2900    0.6540 C   0  0  0  0  0  0  0  0  0  0  0  0
  1  2  2  0
  2  3  1  0
  2  4  1  0
  5  3  1  6
  4  6  2  0
  5  6  1  0
  4  7  1  0
  5  8  2  0
  5  9  2  0
  6 10  1  0
  7 11  2  0
  8 12  1  0
 10 13  2  0
 11 13  1  0
 12 14  1  0
 14 15  1  0
 15 16  2  0
 15 17  1  0
 16 18  1  0
 17 19  2  0
 18 20  1  0
 18 21  2  0
 19 21  1  0
 20 22  1  0
M  END
