mac-x0148-mac-x0163
     RDKit          3D

 25 30  0  0  0  0  0  0  0  0999 V2000
   -3.4030   15.6500   -2.1750 Cl  0  0  0  0  0  0  0  0  0  0  0  0
   -2.6810   14.4250   -1.1280 C   0  0  2  0  0  0  0  0  0  0  0  0
   -3.0830   14.6310    0.3040 C   0  0  0  0  0  0  0  0  0  0  0  0
   -1.1380   14.1440   -1.1980 C   0  0  2  0  0  0  0  0  0  0  0  0
   -3.8100   13.5230   -1.4340 C   0  0  0  0  0  0  0  0  0  0  0  0
   -0.3300   14.4190    0.0240 N   0  0  0  0  0  0  0  0  0  0  0  0
   -2.2510   15.2280    1.1240 N   0  0  0  0  0  0  0  0  0  0  0  0
   -4.2180   14.1710    0.6760 N   0  0  0  0  0  0  0  0  0  0  0  0
   -4.6450   13.4880   -0.3970 C   0  0  0  0  0  0  0  0  0  0  0  0
   -0.2750   14.6900   -2.3480 C   0  0  0  0  0  0  0  0  0  0  0  0
   -0.9650   12.6640   -1.2340 C   0  0  0  0  0  0  0  0  0  0  0  0
   -2.8950   14.9150    2.3170 N   0  0  0  0  0  0  0  0  0  0  0  0
    0.7150   13.6370   -2.6450 N   0  0  0  0  0  0  0  0  0  0  0  0
   -0.9200   14.8870    1.0360 C   0  0  0  0  0  0  0  0  0  0  0  0
    0.2800   12.3600   -2.0230 C   0  0  2  0  0  0  0  0  0  0  0  0
    0.6940   13.3270   -4.0370 C   0  0  0  0  0  0  0  0  0  0  0  0
   -0.0390   11.3980   -3.1480 C   0  0  0  0  0  0  0  0  0  0  0  0
   -0.5290   12.4400   -4.0830 C   0  0  2  0  0  0  0  0  0  0  0  0
   -0.9620   12.1250   -5.4720 C   0  0  0  0  0  0  0  0  0  0  0  0
   -1.8020   13.1090   -3.5750 C   0  0  0  0  0  0  0  0  0  0  0  0
   -1.7620   14.2620   -4.5250 C   0  0  1  0  0  0  0  0  0  0  0  0
   -1.4810   13.5260   -5.8300 C   0  0  2  0  0  0  0  0  0  0  0  0
   -2.8300   13.5540   -6.4900 C   0  0  0  0  0  0  0  0  0  0  0  0
   -3.0770   14.9920   -4.7220 C   0  0  0  0  0  0  0  0  0  0  0  0
   -3.4380   14.7820   -6.0830 O   0  0  0  0  0  0  0  0  0  0  0  0
  2  1  1  6
  2  3  1  0
  2  4  1  0
  2  5  1  0
  4  6  1  0
  3  7  1  0
  3  8  2  0
  5  9  2  0
  8  9  1  0
  4 10  1  6
  4 11  1  0
  7 12  1  0
 10 13  1  0
  6 14  2  0
  7 14  1  0
 15 11  1  6
 13 15  1  0
 13 16  1  0
 15 17  1  0
 18 16  1  6
 17 18  1  0
 18 19  1  0
 18 20  1  0
 21 20  1  1
 22 19  1  1
 21 22  1  0
 22 23  1  0
 21 24  1  0
 23 25  1  0
 24 25  1  0
M  END
