mac-x0394-diamond-x0849_0_A
     RDKit          3D

 24 26  0  0  0  0  0  0  0  0999 V2000
    0.9350   18.2810   -5.1810 Cl  0  0  0  0  0  0  0  0  0  0  0  0
    0.2110   16.7500   -4.9680 C   0  0  0  0  0  0  0  0  0  0  0  0
   -1.1730   16.6480   -5.0240 C   0  0  0  0  0  0  0  0  0  0  0  0
    1.0120   15.6330   -4.7450 C   0  0  0  0  0  0  0  0  0  0  0  0
    0.4220   14.3810   -4.5780 C   0  0  0  0  0  0  0  0  0  0  0  0
   -1.7850   15.4020   -4.8570 C   0  0  0  0  0  0  0  0  0  0  0  0
   -3.2920   15.2550   -4.9140 C   0  0  0  0  0  0  0  0  0  0  0  0
    1.2700   13.1560   -4.3380 C   0  0  0  0  0  0  0  0  0  0  0  0
   -0.9750   14.2780   -4.6370 C   0  0  0  0  0  0  0  0  0  0  0  0
    0.8930   12.4250   -3.0750 C   0  0  0  0  0  0  0  0  0  0  0  0
   -3.8970   14.8570   -3.5470 C   0  0  0  0  0  0  0  0  0  0  0  0
    0.2440   11.2650   -3.2900 O   0  0  0  0  0  0  0  0  0  0  0  0
    1.1270   12.8020   -1.9410 O   0  0  0  0  0  0  0  0  0  0  0  0
   -3.0730   15.4150   -2.5200 O   0  0  0  0  0  0  0  0  0  0  0  0
   -3.3510   15.2740   -1.1690 C   0  0  0  0  0  0  0  0  0  0  0  0
   -2.2470   14.9270   -0.3500 C   0  0  0  0  0  0  0  0  0  0  0  0
   -4.5900   15.4570   -0.5750 C   0  0  0  0  0  0  0  0  0  0  0  0
   -2.4460   14.7920    1.0300 C   0  0  0  0  0  0  0  0  0  0  0  0
   -4.6640   15.2910    0.7910 C   0  0  0  0  0  0  0  0  0  0  0  0
   -0.9460   14.7200   -0.8470 C   0  0  0  0  0  0  0  0  0  0  0  0
   -3.6300   14.9710    1.5750 N   0  0  0  0  0  0  0  0  0  0  0  0
   -1.4560   14.4860    1.8520 N   0  0  0  0  0  0  0  0  0  0  0  0
    0.0830   14.3970    0.0200 C   0  0  0  0  0  0  0  0  0  0  0  0
   -0.2350   14.2950    1.3570 C   0  0  0  0  0  0  0  0  0  0  0  0
  1  2  1  0
  2  3  2  0
  2  4  1  0
  4  5  2  0
  3  6  1  0
  6  7  1  0
  5  8  1  0
  5  9  1  0
  6  9  2  0
  8 10  1  0
  7 11  1  0
 10 12  1  0
 10 13  2  0
 11 14  1  0
 14 15  1  0
 15 16  1  0
 15 17  2  0
 16 18  2  0
 17 19  1  0
 16 20  1  0
 18 21  1  0
 19 21  2  0
 18 22  1  0
 20 23  2  0
 22 24  2  0
 23 24  1  0
M  END
