mac-x0397-mac-x0124
     RDKit          3D

 18 20  0  0  0  0  0  0  0  0999 V2000
   -6.7130   15.4050   -2.2730 Cl  0  0  0  0  0  0  0  0  0  0  0  0
   -5.1410   14.6670   -1.8990 C   0  0  2  0  0  0  0  0  0  0  0  0
   -5.0650   14.4220   -0.4530 C   0  0  0  0  0  0  0  0  0  0  0  0
   -3.9580   15.5710   -2.2720 C   0  0  0  0  0  0  0  0  0  0  0  0
   -6.1850   14.3250    0.3640 N   0  0  0  0  0  0  0  0  0  0  0  0
   -3.8570   14.2990    0.1630 C   0  0  0  0  0  0  0  0  0  0  0  0
   -2.5890   14.9120   -1.9720 C   0  0  1  0  0  0  0  0  0  0  0  0
   -1.4030   15.7290   -2.5470 C   0  0  0  0  0  0  0  0  0  0  0  0
   -5.8070   14.1280    1.6020 C   0  0  0  0  0  0  0  0  0  0  0  0
   -4.1150   14.0230    1.8090 S   0  0  0  0  0  0  0  0  0  0  0  0
   -2.4720   14.4420   -0.4560 C   0  0  1  0  0  0  0  0  0  0  0  0
   -6.6600   14.0210    2.6350 N   0  0  0  0  0  0  0  0  0  0  0  0
   -2.1180   15.4560    0.6490 C   0  0  2  0  0  0  0  0  0  0  0  0
   -1.3130   13.4590   -0.2530 C   0  0  0  0  0  0  0  0  0  0  0  0
   -3.2170   16.3330    0.9370 N   0  0  0  0  0  0  0  0  0  0  0  0
   -0.8740   16.1190    0.5240 N   0  0  0  0  0  0  0  0  0  0  0  0
   -0.0350   14.1310   -0.4700 N   0  0  0  0  0  0  0  0  0  0  0  0
    0.1500   15.1070    0.5770 C   0  0  0  0  0  0  0  0  0  0  0  0
  2  1  1  1
  2  3  1  0
  2  4  1  0
  3  5  1  0
  3  6  2  0
  4  7  1  0
  7  8  1  1
  5  9  2  0
  6 10  1  0
  9 10  1  0
  6 11  1  0
  7 11  1  0
  9 12  1  0
 11 13  1  0
 11 14  1  6
 13 15  1  6
 13 16  1  0
 14 17  1  0
 16 18  1  0
 17 18  1  0
M  END
