mac-x0510-diamond-x0574_0_A
     RDKit          3D

 13 14  0  0  0  0  0  0  0  0999 V2000
   -6.3550   14.7880    0.6680 N   0  0  0  0  0  0  0  0  0  0  0  0
   -6.8010   14.5680    2.0390 C   0  0  0  0  0  0  0  0  0  0  0  0
   -5.1260   15.0970    0.4890 C   0  0  0  0  0  0  0  0  0  0  0  0
   -4.1710   15.2410    1.4510 N   0  0  0  0  0  0  0  0  0  0  0  0
   -4.7750   15.2830   -0.8380 N   0  0  0  0  0  0  0  0  0  0  0  0
   -2.9670   14.8830    1.0560 C   0  0  0  0  0  0  0  0  0  0  0  0
   -3.4780   15.2280   -1.3000 C   0  0  0  0  0  0  0  0  0  0  0  0
   -3.1590   15.4660   -2.4570 O   0  0  0  0  0  0  0  0  0  0  0  0
   -2.5920   14.8550   -0.2510 C   0  0  0  0  0  0  0  0  0  0  0  0
   -1.9980   14.4980    1.8840 N   0  0  0  0  0  0  0  0  0  0  0  0
   -1.2960   14.4110   -0.2220 N   0  0  0  0  0  0  0  0  0  0  0  0
   -1.0150   14.2030    1.1160 C   0  0  0  0  0  0  0  0  0  0  0  0
    0.1190   13.7360    1.5790 N   0  0  0  0  0  0  0  0  0  0  0  0
  1  2  1  0
  1  3  2  3
  3  4  1  0
  3  5  1  0
  4  6  1  0
  5  7  1  0
  7  8  2  0
  6  9  2  0
  7  9  1  0
  6 10  1  0
  9 11  1  0
 10 12  2  0
 11 12  1  0
 12 13  1  0
M  END
