mac-x0178-mac-x0302
     RDKit          3D

 25 26  0  0  0  0  0  0  0  0999 V2000
   -0.4010   18.4700   -6.8410 N   0  0  0  0  0  0  0  0  0  0  0  0
   -1.6460   17.7070   -5.9220 S   0  0  0  0  0  0  0  0  0  0  0  0
   -2.7150   17.2360   -6.8480 O   0  0  0  0  0  0  0  0  0  0  0  0
   -2.1540   18.7290   -4.9370 O   0  0  0  0  0  0  0  0  0  0  0  0
   -1.0350   16.3430   -5.0660 C   0  0  0  0  0  0  0  0  0  0  0  0
    0.0520   16.5220   -4.2690 C   0  0  0  0  0  0  0  0  0  0  0  0
   -1.6360   15.0940   -5.1670 C   0  0  0  0  0  0  0  0  0  0  0  0
    0.5440   15.4930   -3.5400 C   0  0  0  0  0  0  0  0  0  0  0  0
   -1.1320   14.0210   -4.4230 C   0  0  0  0  0  0  0  0  0  0  0  0
   -0.0880   14.3290   -3.6560 C   0  0  0  0  0  0  0  0  0  0  0  0
    0.6750   13.2490   -2.5270 S   0  0  0  0  0  0  0  0  0  0  0  0
    1.8760   12.2270   -2.8270 O   0  0  0  0  0  0  0  0  0  0  0  0
   -0.2820   12.2040   -2.8330 O   0  0  0  0  0  0  0  0  0  0  0  0
    1.8350   14.2190   -2.6050 O   0  0  0  0  0  0  0  0  0  0  0  0
    0.1020   13.9510   -1.1950 C   0  0  0  0  0  0  0  0  0  0  0  0
   -1.0160   14.9160   -1.5260 N   0  0  0  0  0  0  0  0  0  0  0  0
   -2.4050   14.7410   -1.8930 C   0  0  0  0  0  0  0  0  0  0  0  0
   -2.7480   14.5570   -3.0840 O   0  0  0  0  0  0  0  0  0  0  0  0
   -3.4610   14.8480   -0.9250 C   0  0  0  0  0  0  0  0  0  0  0  0
   -4.7940   14.8550   -1.2520 C   0  0  0  0  0  0  0  0  0  0  0  0
   -3.0640   14.9490    0.4050 C   0  0  0  0  0  0  0  0  0  0  0  0
   -5.7860   14.9570   -0.2670 C   0  0  0  0  0  0  0  0  0  0  0  0
   -4.0500   15.0480    1.3350 C   0  0  0  0  0  0  0  0  0  0  0  0
   -7.1350   14.9640   -0.5950 O   0  0  0  0  0  0  0  0  0  0  0  0
   -5.3860   15.0510    1.0440 C   0  0  0  0  0  0  0  0  0  0  0  0
  2  1  1  0
  2  3  2  0
  2  4  2  0
  2  5  1  0
  5  6  2  0
  5  7  1  0
  6  8  1  0
  7  9  2  0
  8 10  2  0
  9 10  1  0
 10 11  1  0
 11 12  2  0
 11 13  1  0
 11 14  1  0
 11 15  1  0
 15 16  1  0
 16 17  1  0
 17 18  2  0
 17 19  1  0
 19 20  2  0
 19 21  1  0
 20 22  1  0
 21 23  2  0
 22 24  1  0
 22 25  2  0
 23 25  1  0
M  END
