mac-x0224-mac-x0354
     RDKit          3D

 28 30  0  0  0  0  0  0  0  0999 V2000
   -5.3930   14.7640    1.2320 C   0  0  0  0  0  0  0  0  0  0  0  0
   -3.6530   15.2630    1.3230 S   0  0  0  0  0  0  0  0  0  0  0  0
   -3.1770   15.0800   -0.3730 C   0  0  0  0  0  0  0  0  0  0  0  0
   -1.8700   14.7330   -0.6610 C   0  0  0  0  0  0  0  0  0  0  0  0
   -4.0890   15.2890   -1.4110 C   0  0  0  0  0  0  0  0  0  0  0  0
   -1.4640   14.6010   -1.9770 C   0  0  0  0  0  0  0  0  0  0  0  0
   -3.6860   15.1500   -2.7460 C   0  0  0  0  0  0  0  0  0  0  0  0
   -0.0700   14.2520   -2.1920 C   0  0  0  0  0  0  0  0  0  0  0  0
   -2.3650   14.8070   -3.0260 C   0  0  0  0  0  0  0  0  0  0  0  0
   -1.9530   14.6750   -4.3260 O   0  0  0  0  0  0  0  0  0  0  0  0
    0.8410   13.8770   -1.3750 N   0  0  0  0  0  0  0  0  0  0  0  0
    0.2600   14.3730   -3.4920 O   0  0  0  0  0  0  0  0  0  0  0  0
    2.0940   13.6320   -2.0180 C   0  0  0  0  0  0  0  0  0  0  0  0
    1.7760   13.0160   -3.2520 N   0  0  0  0  0  0  0  0  0  0  0  0
    0.9890   12.0440   -3.5290 C   0  0  0  0  0  0  0  0  0  0  0  0
    0.2270   11.2420   -2.7380 O   0  0  0  0  0  0  0  0  0  0  0  0
    0.9840   11.8660   -4.9280 C   0  0  0  0  0  0  0  0  0  0  0  0
    1.9280   12.5680   -5.6580 C   0  0  0  0  0  0  0  0  0  0  0  0
    0.2680   11.1360   -5.8860 C   0  0  0  0  0  0  0  0  0  0  0  0
    0.8550   11.4730   -7.0620 N   0  0  0  0  0  0  0  0  0  0  0  0
    1.8500   12.3300   -6.9220 N   0  0  0  0  0  0  0  0  0  0  0  0
   -0.8290   10.1970   -5.8710 C   0  0  0  0  0  0  0  0  0  0  0  0
    0.5210   11.0080   -8.3900 C   0  0  0  0  0  0  0  0  0  0  0  0
   -0.6350    8.9310   -6.4370 C   0  0  0  0  0  0  0  0  0  0  0  0
   -2.0610   10.5310   -5.3170 C   0  0  0  0  0  0  0  0  0  0  0  0
   -1.6710    8.0050   -6.4470 C   0  0  0  0  0  0  0  0  0  0  0  0
   -3.0980    9.5980   -5.3290 C   0  0  0  0  0  0  0  0  0  0  0  0
   -2.9020    8.3400   -5.8920 C   0  0  0  0  0  0  0  0  0  0  0  0
  1  2  1  0
  2  3  1  0
  3  4  2  0
  3  5  1  0
  4  6  1  0
  5  7  2  0
  6  8  1  0
  6  9  2  0
  7  9  1  0
  9 10  1  0
  8 11  2  3
  8 12  1  0
 11 13  1  0
 13 14  1  0
 14 15  2  3
 15 16  1  0
 15 17  1  0
 17 18  1  0
 17 19  2  0
 19 20  1  0
 18 21  2  0
 20 21  1  0
 19 22  1  0
 20 23  1  0
 22 24  2  0
 22 25  1  0
 24 26  1  0
 25 27  2  0
 26 28  2  0
 27 28  1  0
M  END
