mac-x0213-mac-x0387
     RDKit          3D

 24 27  0  0  0  0  0  0  0  0999 V2000
    0.0410   11.8080   -2.6970 O   0  0  0  0  0  0  0  0  0  0  0  0
    0.3260   13.0830   -3.0440 C   0  0  0  0  0  0  0  0  0  0  0  0
    0.6730   14.0140   -2.2560 N   0  0  0  0  0  0  0  0  0  0  0  0
    0.2270   13.5290   -4.4650 C   0  0  0  0  0  0  0  0  0  0  0  0
    0.7690   13.7870   -0.8530 C   0  0  0  0  0  0  0  0  0  0  0  0
   -1.2170   13.9180   -4.8410 C   0  0  0  0  0  0  0  0  0  0  0  0
    1.1190   14.7690   -4.6210 C   0  0  0  0  0  0  0  0  0  0  0  0
   -1.1460   15.4160   -5.0160 C   0  0  0  0  0  0  0  0  0  0  0  0
    0.1620   15.8820   -4.8930 C   0  0  0  0  0  0  0  0  0  0  0  0
   -0.4560   14.2390   -0.1230 C   0  0  0  0  0  0  0  0  0  0  0  0
   -2.1890   16.3000   -5.2800 C   0  0  0  0  0  0  0  0  0  0  0  0
    0.4610   17.2270   -5.0290 C   0  0  0  0  0  0  0  0  0  0  0  0
   -1.6010   14.5990   -0.8520 C   0  0  0  0  0  0  0  0  0  0  0  0
   -0.5180   14.3140    1.2580 C   0  0  0  0  0  0  0  0  0  0  0  0
   -1.8830   17.6560   -5.4240 C   0  0  0  0  0  0  0  0  0  0  0  0
   -0.5730   18.1110   -5.2990 C   0  0  0  0  0  0  0  0  0  0  0  0
   -2.7480   15.0160   -0.1560 C   0  0  0  0  0  0  0  0  0  0  0  0
   -1.6040   14.7090    1.9450 N   0  0  0  0  0  0  0  0  0  0  0  0
   -1.6650   14.5650   -2.2600 C   0  0  0  0  0  0  0  0  0  0  0  0
   -2.6900   15.0560    1.2390 C   0  0  0  0  0  0  0  0  0  0  0  0
   -2.8130   14.9250   -2.9600 C   0  0  0  0  0  0  0  0  0  0  0  0
   -3.9000   15.3790   -0.8860 C   0  0  0  0  0  0  0  0  0  0  0  0
   -3.8070   15.4800    1.9680 N   0  0  0  0  0  0  0  0  0  0  0  0
   -3.9310   15.3320   -2.2700 C   0  0  0  0  0  0  0  0  0  0  0  0
  1  2  1  0
  2  3  2  3
  2  4  1  0
  3  5  1  0
  4  6  1  0
  4  7  1  0
  6  8  1  0
  7  9  1  0
  8  9  2  0
  5 10  1  0
  8 11  1  0
  9 12  1  0
 10 13  1  0
 10 14  2  0
 11 15  2  0
 12 16  2  0
 15 16  1  0
 13 17  2  0
 14 18  1  0
 13 19  1  0
 17 20  1  0
 18 20  2  0
 19 21  2  0
 17 22  1  0
 20 23  1  0
 21 24  1  0
 22 24  2  0
M  END
