mac-x0361-mac-x0546
     RDKit          3D

 26 28  0  0  0  0  0  0  0  0999 V2000
   -6.4000   14.8740    2.0700 N   0  0  0  0  0  0  0  0  0  0  0  0
   -6.7060   14.6990    0.7530 C   0  0  0  0  0  0  0  0  0  0  0  0
   -7.8590   14.4640    0.4020 O   0  0  0  0  0  0  0  0  0  0  0  0
   -5.6560   14.8140   -0.2700 C   0  0  0  0  0  0  0  0  0  0  0  0
   -4.2890   14.7840    0.0530 C   0  0  0  0  0  0  0  0  0  0  0  0
   -6.0710   14.9510   -1.5800 C   0  0  0  0  0  0  0  0  0  0  0  0
   -3.3410   14.8840   -0.9710 C   0  0  0  0  0  0  0  0  0  0  0  0
   -5.1430   15.0450   -2.5670 C   0  0  0  0  0  0  0  0  0  0  0  0
   -3.7970   15.0100   -2.2760 C   0  0  0  0  0  0  0  0  0  0  0  0
   -3.1270   15.1080   -3.4150 O   0  0  0  0  0  0  0  0  0  0  0  0
   -4.0230   14.9840   -4.5390 C   0  0  0  0  0  0  0  0  0  0  0  0
   -3.5580   15.8080   -5.6320 N   0  0  0  0  0  0  0  0  0  0  0  0
   -3.9440   15.0600   -6.8110 C   0  0  0  0  0  0  0  0  0  0  0  0
   -2.2660   16.0130   -5.2390 C   0  0  0  0  0  0  0  0  0  0  0  0
   -1.6720   14.9130   -4.7910 C   0  0  0  0  0  0  0  0  0  0  0  0
   -1.5600   17.3070   -5.1870 C   0  0  0  0  0  0  0  0  0  0  0  0
   -0.3600   14.9420   -4.1970 C   0  0  2  0  0  0  0  0  0  0  0  0
   -0.2320   17.4050   -4.9130 C   0  0  0  0  0  0  0  0  0  0  0  0
    0.4390   16.1020   -4.6970 C   0  0  0  0  0  0  0  0  0  0  0  0
    0.6520   13.8760   -4.3540 C   0  0  0  0  0  0  0  0  0  0  0  0
    0.4180   12.4120   -4.1620 C   0  0  0  0  0  0  0  0  0  0  0  0
    1.6750   15.8300   -4.8730 N   0  0  0  0  0  0  0  0  0  0  0  0
    1.7860   14.4660   -4.6750 C   0  0  0  0  0  0  0  0  0  0  0  0
    0.5070   11.9660   -2.7160 C   0  0  0  0  0  0  0  0  0  0  0  0
    0.8710   12.6550   -1.7830 O   0  0  0  0  0  0  0  0  0  0  0  0
    0.1260   10.6680   -2.5650 O   0  0  0  0  0  0  0  0  0  0  0  0
  1  2  1  0
  2  3  2  0
  2  4  1  0
  4  5  2  0
  4  6  1  0
  5  7  1  0
  6  8  2  0
  7  9  2  0
  8  9  1  0
  9 10  1  0
 10 11  1  0
 11 12  1  0
 12 13  1  0
 12 14  1  0
 14 15  2  0
 14 16  1  0
 17 15  1  6
 16 18  2  0
 17 19  1  0
 18 19  1  0
 17 20  1  0
 20 21  1  0
 19 22  2  0
 20 23  2  0
 22 23  1  0
 21 24  1  0
 24 25  2  0
 24 26  1  0
M  END
