mac-x0354-mac-x0522
     RDKit          3D

 32 35  0  0  0  0  0  0  0  0999 V2000
   -0.7700   11.6700   -8.0160 C   0  0  0  0  0  0  0  0  0  0  0  0
   -0.1650   12.4140   -6.9010 N   0  0  0  0  0  0  0  0  0  0  0  0
    1.2550   12.1950   -6.9610 N   0  0  0  0  0  0  0  0  0  0  0  0
   -0.6380   11.9090   -5.6030 C   0  0  2  0  0  0  0  0  0  0  0  0
    1.2610   10.8050   -7.4540 C   0  0  0  0  0  0  0  0  0  0  0  0
    1.6560   12.4800   -5.5870 C   0  0  0  0  0  0  0  0  0  0  0  0
    0.6060   11.7110   -4.7980 C   0  0  1  0  0  0  0  0  0  0  0  0
   -1.3470   10.5720   -5.7670 C   0  0  0  0  0  0  0  0  0  0  0  0
    0.5510   11.9980   -3.3270 C   0  0  0  0  0  0  0  0  0  0  0  0
    0.8700   10.7190   -8.9450 C   0  0  0  0  0  0  0  0  0  0  0  0
   -0.7020    9.4330   -6.3100 C   0  0  0  0  0  0  0  0  0  0  0  0
   -2.6730   10.4610   -5.3730 C   0  0  0  0  0  0  0  0  0  0  0  0
    0.9590   13.0040   -2.7760 O   0  0  0  0  0  0  0  0  0  0  0  0
    0.0100   10.9710   -2.6260 O   0  0  0  0  0  0  0  0  0  0  0  0
    1.1460    9.3610   -9.5610 C   0  0  0  0  0  0  0  0  0  0  0  0
   -1.3880    8.2250   -6.4450 C   0  0  0  0  0  0  0  0  0  0  0  0
   -3.3570    9.2560   -5.5070 C   0  0  0  0  0  0  0  0  0  0  0  0
    1.8630    9.6270  -10.7950 N   0  0  0  0  0  0  0  0  0  0  0  0
   -2.7160    8.1430   -6.0410 C   0  0  0  0  0  0  0  0  0  0  0  0
    2.7770    8.8730  -11.3070 C   0  0  0  0  0  0  0  0  0  0  0  0
    3.2560    7.6490  -10.8240 N   0  0  0  0  0  0  0  0  0  0  0  0
    3.3740    9.5040  -12.5660 C   0  0  0  0  0  0  0  0  0  0  0  0
    2.8220    6.9350   -9.7180 C   0  0  0  0  0  0  0  0  0  0  0  0
    4.4460    8.9520  -13.2800 C   0  0  0  0  0  0  0  0  0  0  0  0
    2.8170   10.7170  -13.0150 C   0  0  0  0  0  0  0  0  0  0  0  0
    3.6070    6.0480   -9.1310 N   0  0  0  0  0  0  0  0  0  0  0  0
    1.2710    7.0660   -8.9560 S   0  0  0  0  0  0  0  0  0  0  0  0
    4.9440    9.6090  -14.4160 C   0  0  0  0  0  0  0  0  0  0  0  0
    3.3150   11.3650  -14.1430 C   0  0  0  0  0  0  0  0  0  0  0  0
    1.6940    5.8860   -7.7990 C   0  0  0  0  0  0  0  0  0  0  0  0
    2.9730    5.4540   -8.0490 C   0  0  0  0  0  0  0  0  0  0  0  0
    4.3790   10.8110  -14.8430 C   0  0  0  0  0  0  0  0  0  0  0  0
  1  2  1  0
  2  3  1  0
  2  4  1  0
  3  5  1  0
  3  6  1  0
  4  7  1  0
  6  7  1  0
  4  8  1  6
  7  9  1  1
  5 10  1  0
  8 11  2  0
  8 12  1  0
  9 13  2  0
  9 14  1  0
 10 15  1  0
 11 16  1  0
 12 17  2  0
 15 18  1  0
 16 19  2  0
 17 19  1  0
 18 20  2  3
 20 21  1  0
 20 22  1  0
 21 23  1  0
 22 24  2  0
 22 25  1  0
 23 26  2  0
 23 27  1  0
 24 28  1  0
 25 29  2  0
 27 30  1  0
 26 31  1  0
 30 31  2  0
 28 32  2  0
 29 32  1  0
M  END
