mac-x0303-mac-x0137
     RDKit          3D

 25 28  0  0  0  0  0  0  0  0999 V2000
   -8.5300   12.9780    2.6320 N   0  0  0  0  0  0  0  0  0  0  0  0
   -8.5380   14.5080    1.9300 S   0  0  0  0  0  0  0  0  0  0  0  0
   -8.3320   15.4830    2.9750 O   0  0  0  0  0  0  0  0  0  0  0  0
   -9.6490   14.5820    1.0160 O   0  0  0  0  0  0  0  0  0  0  0  0
   -7.0710   14.5520    0.9370 C   0  0  0  0  0  0  0  0  0  0  0  0
   -6.9650   15.1660   -0.2970 N   0  0  0  0  0  0  0  0  0  0  0  0
   -5.9260   13.9980    1.2910 N   0  0  0  0  0  0  0  0  0  0  0  0
   -5.6720   14.9800   -0.7030 C   0  0  0  0  0  0  0  0  0  0  0  0
   -5.0630   14.2600    0.2750 C   0  0  0  0  0  0  0  0  0  0  0  0
   -5.0830   15.4330   -1.8810 C   0  0  0  0  0  0  0  0  0  0  0  0
   -3.6330   13.8380    0.1860 C   0  0  0  0  0  0  0  0  0  0  0  0
   -3.7240   15.3490   -1.9300 C   0  0  0  0  0  0  0  0  0  0  0  0
   -2.8070   14.7590   -0.7830 C   0  0  1  0  0  0  0  0  0  0  0  0
   -2.3240   15.8880    0.1400 C   0  0  0  0  0  0  0  0  0  0  0  0
   -1.3900   14.1470   -1.2470 C   0  0  1  0  0  0  0  0  0  0  0  0
   -0.7700   14.2770   -2.5820 N   0  0  0  0  0  0  0  0  0  0  0  0
   -0.2850   14.6080   -0.3960 N   0  0  0  0  0  0  0  0  0  0  0  0
   -1.6180   15.3970    1.3250 N   0  0  0  0  0  0  0  0  0  0  0  0
   -1.5700   14.4890   -3.7990 C   0  0  0  0  0  0  0  0  0  0  0  0
    0.4210   13.4510   -2.7790 C   0  0  0  0  0  0  0  0  0  0  0  0
   -0.5490   14.4890    1.0060 C   0  0  0  0  0  0  0  0  0  0  0  0
   -1.9190   13.2190   -4.5870 C   0  0  2  0  0  0  0  0  0  0  0  0
    0.0460   12.1110   -3.4150 C   0  0  0  0  0  0  0  0  0  0  0  0
   -2.9290   12.5800   -3.9360 F   0  0  0  0  0  0  0  0  0  0  0  0
   -0.7440   12.2570   -4.7140 C   0  0  0  0  0  0  0  0  0  0  0  0
  2  1  1  0
  2  3  2  0
  2  4  2  0
  2  5  1  0
  5  6  1  0
  5  7  2  0
  6  8  1  0
  7  9  1  0
  8  9  2  0
  8 10  1  0
  9 11  1  0
 10 12  2  0
 13 11  1  1
 13 12  1  0
 13 14  1  0
 13 15  1  0
 15 16  1  6
 15 17  1  0
 14 18  1  0
 16 19  1  0
 16 20  1  0
 17 21  1  0
 18 21  1  0
 19 22  1  0
 20 23  1  0
 22 24  1  1
 22 25  1  0
 23 25  1  0
M  END
