mac-x0394-mac-x0303
     RDKit          3D

 27 29  0  0  0  0  0  0  0  0999 V2000
    0.9710   18.2810   -4.8330 Cl  0  0  0  0  0  0  0  0  0  0  0  0
    0.2410   16.7490   -4.8900 C   0  0  0  0  0  0  0  0  0  0  0  0
   -1.0950   16.6670   -5.2510 C   0  0  0  0  0  0  0  0  0  0  0  0
    0.9900   15.6220   -4.5800 C   0  0  0  0  0  0  0  0  0  0  0  0
    0.3950   14.3600   -4.6320 C   0  0  0  0  0  0  0  0  0  0  0  0
   -1.7140   15.4210   -5.3150 C   0  0  0  0  0  0  0  0  0  0  0  0
   -3.1640   15.2920   -5.7230 C   0  0  0  0  0  0  0  0  0  0  0  0
    1.1970   13.1250   -4.2980 C   0  0  0  0  0  0  0  0  0  0  0  0
   -0.9600   14.2750   -5.0020 C   0  0  0  0  0  0  0  0  0  0  0  0
    0.8150   12.4700   -2.9900 C   0  0  0  0  0  0  0  0  0  0  0  0
   -3.9310   14.7880   -4.5260 C   0  0  0  0  0  0  0  0  0  0  0  0
    0.1830   11.2920   -3.1800 O   0  0  0  0  0  0  0  0  0  0  0  0
    1.0030   12.8780   -1.8580 O   0  0  0  0  0  0  0  0  0  0  0  0
   -3.2790   15.4180   -3.3130 C   0  0  0  0  0  0  0  0  0  0  0  0
   -3.9790   15.2350   -2.0140 C   0  0  0  0  0  0  0  0  0  0  0  0
   -5.3790   15.1730   -1.9340 C   0  0  0  0  0  0  0  0  0  0  0  0
   -3.1830   15.1240   -0.8700 C   0  0  0  0  0  0  0  0  0  0  0  0
   -5.9130   14.9890   -0.6690 C   0  0  0  0  0  0  0  0  0  0  0  0
   -3.7440   14.9470    0.3850 C   0  0  0  0  0  0  0  0  0  0  0  0
   -7.2020   14.8720   -0.2100 N   0  0  0  0  0  0  0  0  0  0  0  0
   -5.1290   14.8760    0.4740 C   0  0  0  0  0  0  0  0  0  0  0  0
   -7.1340   14.6980    1.1490 C   0  0  0  0  0  0  0  0  0  0  0  0
   -5.8960   14.7010    1.5770 N   0  0  0  0  0  0  0  0  0  0  0  0
   -8.5410   14.5050    2.1810 S   0  0  0  0  0  0  0  0  0  0  0  0
   -8.2330   13.0830    3.0370 N   0  0  0  0  0  0  0  0  0  0  0  0
   -8.4770   15.6020    3.1200 O   0  0  0  0  0  0  0  0  0  0  0  0
   -9.6890   14.2750    1.3350 O   0  0  0  0  0  0  0  0  0  0  0  0
  1  2  1  0
  2  3  2  0
  2  4  1  0
  4  5  2  0
  3  6  1  0
  6  7  1  0
  5  8  1  0
  5  9  1  0
  6  9  2  0
  8 10  1  0
  7 11  1  0
 10 12  1  0
 10 13  2  0
 11 14  1  0
 14 15  1  0
 15 16  2  0
 15 17  1  0
 16 18  1  0
 17 19  2  0
 18 20  1  0
 18 21  2  0
 19 21  1  0
 20 22  1  0
 21 23  1  0
 22 23  2  0
 22 24  1  0
 24 25  1  0
 24 26  2  0
 24 27  2  0
M  END
