mac-x0555-diamond-x0962_1_A
     RDKit          3D

 13 14  0  0  0  0  0  0  0  0999 V2000
   -7.0070   14.4600    2.6370 N   0  0  0  0  0  0  0  0  0  0  0  0
   -6.6640   14.5950    1.2850 C   0  0  0  0  0  0  0  0  0  0  0  0
   -7.6490   14.5530    0.2990 C   0  0  0  0  0  0  0  0  0  0  0  0
   -5.3630   14.7820    0.7520 C   0  0  0  0  0  0  0  0  0  0  0  0
   -4.0970   14.8770    1.3420 C   0  0  0  0  0  0  0  0  0  0  0  0
   -5.1030   14.9090   -0.5660 C   0  0  0  0  0  0  0  0  0  0  0  0
   -7.4210   14.6750   -1.0350 N   0  0  0  0  0  0  0  0  0  0  0  0
   -2.9810   14.9500    1.6020 N   0  0  0  0  0  0  0  0  0  0  0  0
   -6.1550   14.8490   -1.4480 C   0  0  0  0  0  0  0  0  0  0  0  0
   -3.7740   15.0950   -1.0040 C   0  0  0  0  0  0  0  0  0  0  0  0
   -5.8440   14.9750   -2.7820 C   0  0  0  0  0  0  0  0  0  0  0  0
   -3.4830   15.2160   -2.3300 C   0  0  0  0  0  0  0  0  0  0  0  0
   -4.5250   15.1530   -3.2280 C   0  0  0  0  0  0  0  0  0  0  0  0
  1  2  1  0
  2  3  2  0
  2  4  1  0
  4  5  1  0
  4  6  2  0
  3  7  1  0
  5  8  3  0
  6  9  1  0
  7  9  2  0
  6 10  1  0
  9 11  1  0
 10 12  2  0
 11 13  2  0
 12 13  1  0
M  END
