mac-x0344-diamond-x0662_0_A
     RDKit          3D

 28 30  0  0  0  0  0  0  0  0999 V2000
    1.7090   13.4240   -4.8710 O   0  0  0  0  0  0  0  0  0  0  0  0
    1.2280   12.6380   -3.8670 C   0  0  0  0  0  0  0  0  0  0  0  0
    1.4510   12.8820   -2.6980 O   0  0  0  0  0  0  0  0  0  0  0  0
    0.4030   11.4590   -4.4850 C   0  0  0  0  0  0  0  0  0  0  0  0
    0.2180   10.5590   -3.6490 O   0  0  0  0  0  0  0  0  0  0  0  0
   -0.1360   11.5040   -5.9570 C   0  0  2  0  0  0  0  0  0  0  0  0
   -0.3030   12.7670   -6.3260 O   0  0  0  0  0  0  0  0  0  0  0  0
   -1.4270   10.7130   -6.1030 C   0  0  0  0  0  0  0  0  0  0  0  0
    0.2220   10.4770   -7.0830 C   0  0  0  0  0  0  0  0  0  0  0  0
   -1.5880   10.1910   -7.4040 C   0  0  0  0  0  0  0  0  0  0  0  0
   -2.4100   10.4170   -5.1610 C   0  0  0  0  0  0  0  0  0  0  0  0
   -0.1330    9.1210   -6.9280 C   0  0  0  0  0  0  0  0  0  0  0  0
    0.8280   10.8260   -8.2920 C   0  0  0  0  0  0  0  0  0  0  0  0
   -2.6540    9.4060   -7.7720 C   0  0  0  0  0  0  0  0  0  0  0  0
   -3.5010    9.6180   -5.5320 C   0  0  0  0  0  0  0  0  0  0  0  0
    0.1020    8.1900   -7.9260 C   0  0  0  0  0  0  0  0  0  0  0  0
    1.0730    9.9090   -9.3130 C   0  0  0  0  0  0  0  0  0  0  0  0
    1.6690   10.1990  -10.5590 N   0  0  0  0  0  0  0  0  0  0  0  0
   -3.6200    9.1140   -6.8310 C   0  0  0  0  0  0  0  0  0  0  0  0
    0.6990    8.5850   -9.1150 C   0  0  0  0  0  0  0  0  0  0  0  0
    2.3240    9.3020  -11.3880 C   0  0  0  0  0  0  0  0  0  0  0  0
    2.3920    8.0990  -11.1860 O   0  0  0  0  0  0  0  0  0  0  0  0
    2.9870    9.9090  -12.5760 C   0  0  0  0  0  0  0  0  0  0  0  0
    2.7750   11.1810  -13.1950 C   0  0  0  0  0  0  0  0  0  0  0  0
    3.9510    9.2360  -13.2300 N   0  0  0  0  0  0  0  0  0  0  0  0
    4.3360   10.0480  -14.2180 N   0  0  0  0  0  0  0  0  0  0  0  0
    3.6610   11.2340  -14.2470 C   0  0  0  0  0  0  0  0  0  0  0  0
    5.3810    9.6010  -15.1090 C   0  0  0  0  0  0  0  0  0  0  0  0
  1  2  1  0
  2  3  2  0
  2  4  1  0
  4  5  2  0
  4  6  1  0
  6  7  1  6
  6  8  1  0
  6  9  1  0
  8 10  2  0
  8 11  1  0
  9 12  2  0
  9 13  1  0
 10 14  1  0
 11 15  2  0
 12 16  1  0
 13 17  2  0
 17 18  1  0
 14 19  2  0
 15 19  1  0
 16 20  2  0
 17 20  1  0
 18 21  1  0
 21 22  2  0
 21 23  1  0
 23 24  1  0
 23 25  2  0
 25 26  1  0
 24 27  2  0
 26 27  1  0
 26 28  1  0
M  CHG  1   7  -1
M  END
