mac-x0206-mac-x0527
     RDKit          3D

 25 27  0  0  0  0  0  0  0  0999 V2000
   -5.5650   14.0170   -3.2060 N   0  0  0  0  0  0  0  0  0  0  0  0
   -4.8380   14.0300   -1.9550 C   0  0  1  0  0  0  0  0  0  0  0  0
   -3.5440   14.9470   -2.0680 C   0  0  2  0  0  0  0  0  0  0  0  0
   -5.8330   14.2530   -0.7600 C   0  0  0  0  0  0  0  0  0  0  0  0
   -3.8360   16.0800   -2.8560 O   0  0  0  0  0  0  0  0  0  0  0  0
   -2.3040   14.2690   -2.5850 N   0  0  0  0  0  0  0  0  0  0  0  0
   -7.1090   14.7410   -1.0480 C   0  0  0  0  0  0  0  0  0  0  0  0
   -5.5750   13.9960    0.6180 C   0  0  0  0  0  0  0  0  0  0  0  0
   -3.5240   15.1170   -0.6090 C   0  0  0  0  0  0  0  0  0  0  0  0
   -7.4080   14.9940   -2.3480 O   0  0  0  0  0  0  0  0  0  0  0  0
   -1.7040   14.6890   -3.8770 C   0  0  0  0  0  0  0  0  0  0  0  0
   -8.0850   14.9710   -0.0740 C   0  0  0  0  0  0  0  0  0  0  0  0
   -6.5670   14.2330    1.6030 C   0  0  0  0  0  0  0  0  0  0  0  0
   -4.6440   15.5410    0.0300 N   0  0  0  0  0  0  0  0  0  0  0  0
   -2.3670   14.7860    0.0310 C   0  0  0  0  0  0  0  0  0  0  0  0
   -7.8110   14.7160    1.2570 C   0  0  0  0  0  0  0  0  0  0  0  0
   -1.2950   13.4780   -4.7080 C   0  0  0  0  0  0  0  0  0  0  0  0
   -4.5010   15.5800    1.3550 C   0  0  0  0  0  0  0  0  0  0  0  0
   -2.2350   14.8420    1.3610 N   0  0  0  0  0  0  0  0  0  0  0  0
   -2.2790   12.5660   -5.0960 C   0  0  0  0  0  0  0  0  0  0  0  0
    0.0320   13.2230   -5.1020 C   0  0  0  0  0  0  0  0  0  0  0  0
   -3.3420   15.2400    1.9740 C   0  0  0  0  0  0  0  0  0  0  0  0
   -1.9640   11.4280   -5.8340 C   0  0  0  0  0  0  0  0  0  0  0  0
    0.3490   12.0830   -5.8530 C   0  0  0  0  0  0  0  0  0  0  0  0
   -0.6540   11.1810   -6.2150 C   0  0  0  0  0  0  0  0  0  0  0  0
  2  1  1  6
  2  3  1  0
  2  4  1  0
  3  5  1  6
  3  6  1  0
  4  7  2  0
  4  8  1  0
  3  9  1  0
  7 10  1  0
  6 11  1  0
  7 12  1  0
  8 13  2  0
  9 14  2  0
  9 15  1  0
 12 16  2  0
 13 16  1  0
 11 17  1  0
 14 18  1  0
 15 19  2  0
 17 20  2  0
 17 21  1  0
 18 22  2  0
 19 22  1  0
 20 23  1  0
 21 24  2  0
 23 25  2  0
 24 25  1  0
M  END
