mac-x0439-mac-x0568
     RDKit          3D

 25 27  0  0  0  0  0  0  0  0999 V2000
   -3.1120   16.0240   -5.6920 Cl  0  0  0  0  0  0  0  0  0  0  0  0
   -1.6530   16.9380   -5.6470 C   0  0  0  0  0  0  0  0  0  0  0  0
   -0.7010   16.7160   -4.5640 C   0  0  1  0  0  0  0  0  0  0  0  0
   -1.3490   17.8840   -6.5430 C   0  0  0  0  0  0  0  0  0  0  0  0
   -0.4940   15.4980   -3.7200 C   0  0  0  0  0  0  0  0  0  0  0  0
    0.7140   17.0030   -4.8620 C   0  0  0  0  0  0  0  0  0  0  0  0
   -0.0750   18.5920   -6.4770 C   0  0  0  0  0  0  0  0  0  0  0  0
    0.8260   15.3040   -3.5810 C   0  0  0  0  0  0  0  0  0  0  0  0
    1.5670   16.2090   -4.2920 N   0  0  0  0  0  0  0  0  0  0  0  0
    0.9560   18.1950   -5.7000 C   0  0  0  0  0  0  0  0  0  0  0  0
    1.4670   14.2480   -2.7410 C   0  0  0  0  0  0  0  0  0  0  0  0
    2.8210   14.3000   -2.8620 O   0  0  0  0  0  0  0  0  0  0  0  0
    1.0270   13.3540   -1.9410 N   0  0  0  0  0  0  0  0  0  0  0  0
   -0.4170   13.2460   -1.6920 C   0  0  0  0  0  0  0  0  0  0  0  0
   -0.8740   14.5270   -0.9690 C   0  0  0  0  0  0  0  0  0  0  0  0
   -2.2300   14.4790   -0.4180 N   0  0  0  0  0  0  0  0  0  0  0  0
   -3.3500   14.9440   -1.1010 C   0  0  0  0  0  0  0  0  0  0  0  0
   -3.3250   15.3980   -2.2380 O   0  0  0  0  0  0  0  0  0  0  0  0
   -4.6480   14.8400   -0.3870 C   0  0  0  0  0  0  0  0  0  0  0  0
   -5.8250   14.8900   -1.1260 C   0  0  0  0  0  0  0  0  0  0  0  0
   -4.7590   14.6880    0.9960 C   0  0  0  0  0  0  0  0  0  0  0  0
   -7.0700   14.7930   -0.5850 N   0  0  0  0  0  0  0  0  0  0  0  0
   -6.0280   14.5890    1.5680 C   0  0  0  0  0  0  0  0  0  0  0  0
   -7.1550   14.6430    0.7560 C   0  0  0  0  0  0  0  0  0  0  0  0
   -8.5220   14.5380    1.3570 C   0  0  0  0  0  0  0  0  0  0  0  0
  1  2  1  0
  2  3  1  0
  2  4  2  0
  3  5  1  6
  3  6  1  0
  4  7  1  0
  5  8  2  0
  6  9  2  0
  8  9  1  0
  6 10  1  0
  7 10  2  0
  8 11  1  0
 11 12  1  0
 11 13  2  3
 13 14  1  0
 14 15  1  0
 15 16  1  0
 16 17  1  0
 17 18  2  0
 17 19  1  0
 19 20  2  0
 19 21  1  0
 20 22  1  0
 21 23  2  0
 22 24  2  0
 23 24  1  0
 24 25  1  0
M  END
