mac-x0223-mac-x0277
     RDKit          3D

 13 13  0  0  0  0  0  0  0  0999 V2000
    1.2370   18.4200   -5.7700 C   0  0  0  0  0  0  0  0  0  0  0  0
    0.2200   18.2180   -4.8130 O   0  0  0  0  0  0  0  0  0  0  0  0
   -0.2350   16.9410   -4.7490 C   0  0  0  0  0  0  0  0  0  0  0  0
   -1.6180   16.8480   -4.7650 C   0  0  0  0  0  0  0  0  0  0  0  0
    0.5300   15.7810   -4.6750 C   0  0  0  0  0  0  0  0  0  0  0  0
   -2.3350   18.0100   -4.8330 O   0  0  0  0  0  0  0  0  0  0  0  0
   -2.2700   15.6260   -4.7070 C   0  0  0  0  0  0  0  0  0  0  0  0
   -0.1010   14.5260   -4.6140 C   0  0  0  0  0  0  0  0  0  0  0  0
    0.7240   13.2650   -4.5350 C   0  0  0  0  0  0  0  0  0  0  0  0
   -1.5070   14.4590   -4.6310 C   0  0  0  0  0  0  0  0  0  0  0  0
    0.5590   12.5160   -3.2360 C   0  0  0  0  0  0  0  0  0  0  0  0
    0.1920   11.3640   -3.1100 O   0  0  0  0  0  0  0  0  0  0  0  0
    0.8640   13.2480   -2.1470 O   0  0  0  0  0  0  0  0  0  0  0  0
  1  2  1  0
  2  3  1  0
  3  4  2  0
  3  5  1  0
  4  6  1  0
  4  7  1  0
  5  8  2  0
  8  9  1  0
  7 10  2  0
  8 10  1  0
  9 11  1  0
 11 12  2  0
 11 13  1  0
M  END
