mac-x0116-mac-x0132
     RDKit          3D

 21 24  0  0  0  0  0  0  0  0999 V2000
   -5.1550   13.7680    2.3250 C   0  0  0  0  0  0  0  0  0  0  0  0
   -4.8010   14.8260    1.4470 N   0  0  0  0  0  0  0  0  0  0  0  0
   -3.8950   14.7640    0.4190 C   0  0  0  0  0  0  0  0  0  0  0  0
   -6.0340   12.6700    1.9230 C   0  0  0  0  0  0  0  0  0  0  0  0
   -6.0480   12.2550    0.6290 O   0  0  0  0  0  0  0  0  0  0  0  0
   -6.8970   11.9250    2.6830 C   0  0  0  0  0  0  0  0  0  0  0  0
   -7.4760   10.9910    1.8060 C   0  0  0  0  0  0  0  0  0  0  0  0
   -6.9310   11.2310    0.5700 C   0  0  0  0  0  0  0  0  0  0  0  0
   -4.5940   14.7920   -0.9130 C   0  0  0  0  0  0  0  0  0  0  0  0
   -2.5640   14.6870    0.4810 C   0  0  0  0  0  0  0  0  0  0  0  0
   -3.6110   14.9830   -2.0690 C   0  0  0  0  0  0  0  0  0  0  0  0
   -1.7660   14.6990   -0.7370 C   0  0  0  0  0  0  0  0  0  0  0  0
   -1.6950   14.5940    1.5390 N   0  0  0  0  0  0  0  0  0  0  0  0
   -5.7600   15.7290   -0.7100 C   0  0  0  0  0  0  0  0  0  0  0  0
   -5.3330   13.4790   -1.2220 C   0  0  0  0  0  0  0  0  0  0  0  0
   -2.3100   14.9060   -1.9750 N   0  0  0  0  0  0  0  0  0  0  0  0
   -0.5130   14.5480   -0.4430 N   0  0  0  0  0  0  0  0  0  0  0  0
   -0.5390   14.4970    0.9470 C   0  0  0  0  0  0  0  0  0  0  0  0
   -6.7860   13.6480   -1.4720 N   0  0  0  0  0  0  0  0  0  0  0  0
   -6.6610   15.0780    0.2910 N   0  0  0  0  0  0  0  0  0  0  0  0
   -7.5060   14.1160   -0.3200 C   0  0  0  0  0  0  0  0  0  0  0  0
  1  2  1  0
  2  3  1  0
  1  4  1  0
  4  5  1  0
  4  6  2  0
  6  7  1  0
  5  8  1  0
  7  8  2  0
  9  3  1  0
  3 10  2  0
  9 11  1  0
 10 12  1  0
 10 13  1  0
  9 14  1  0
  9 15  1  0
 11 16  2  0
 12 16  1  0
 12 17  2  0
 13 18  2  0
 17 18  1  0
 15 19  1  0
 14 20  1  0
 19 21  1  0
 20 21  1  0
M  END
