mac-x0142-mac-x0455
     RDKit          3D

 29 33  0  0  0  0  0  0  0  0999 V2000
   -2.3010   12.7190   -1.9290 C   0  0  0  0  0  0  0  0  0  0  0  0
   -1.0970   12.8350   -2.8860 C   0  0  1  0  0  0  0  0  0  0  0  0
   -1.2950   14.0220   -3.4140 O   0  0  0  0  0  0  0  0  0  0  0  0
    0.2390   12.8030   -2.0340 C   0  0  0  0  0  0  0  0  0  0  0  0
   -1.0810   12.0150   -4.1580 C   0  0  0  0  0  0  0  0  0  0  0  0
    1.0210   13.7510   -1.8850 O   0  0  0  0  0  0  0  0  0  0  0  0
    0.5040   11.6300   -1.4500 O   0  0  0  0  0  0  0  0  0  0  0  0
   -0.1520   14.6020   -3.0020 C   0  0  1  0  0  0  0  0  0  0  0  0
   -2.1730   11.2100   -4.4710 C   0  0  0  0  0  0  0  0  0  0  0  0
    0.0050   12.0490   -5.0480 C   0  0  0  0  0  0  0  0  0  0  0  0
    0.8110   14.4840   -4.1100 C   0  0  0  0  0  0  0  0  0  0  0  0
   -0.6940   15.8300   -2.6690 N   0  0  0  0  0  0  0  0  0  0  0  0
   -2.1820   10.4570   -5.6340 C   0  0  0  0  0  0  0  0  0  0  0  0
    0.0000   11.3010   -6.2110 C   0  0  0  0  0  0  0  0  0  0  0  0
    2.2610   14.7610   -3.8870 C   0  0  0  0  0  0  0  0  0  0  0  0
    1.8460   13.3550   -4.1710 C   0  0  0  0  0  0  0  0  0  0  0  0
    0.0290   14.7890   -5.3440 C   0  0  0  0  0  0  0  0  0  0  0  0
   -1.7210   15.9370   -3.7390 C   0  0  0  0  0  0  0  0  0  0  0  0
   -1.0700   15.6320   -1.3300 C   0  0  0  0  0  0  0  0  0  0  0  0
   -1.0950   10.5010   -6.5050 C   0  0  0  0  0  0  0  0  0  0  0  0
   -1.4640   14.9390   -4.9260 C   0  0  0  0  0  0  0  0  0  0  0  0
   -0.0860   15.4240   -0.3820 N   0  0  0  0  0  0  0  0  0  0  0  0
   -2.3240   15.5790   -0.8490 C   0  0  0  0  0  0  0  0  0  0  0  0
   -0.3670   15.1230    0.9180 C   0  0  0  0  0  0  0  0  0  0  0  0
   -2.5510   15.3150    0.5940 C   0  0  0  0  0  0  0  0  0  0  0  0
   -3.6450   15.7120   -1.3670 C   0  0  0  0  0  0  0  0  0  0  0  0
   -1.5330   15.0530    1.4630 N   0  0  0  0  0  0  0  0  0  0  0  0
   -3.8140   15.3490    0.9060 N   0  0  0  0  0  0  0  0  0  0  0  0
   -4.4500   15.5840   -0.3010 C   0  0  0  0  0  0  0  0  0  0  0  0
  2  1  1  1
  2  3  1  0
  2  4  1  0
  2  5  1  0
  4  6  2  0
  4  7  1  0
  8  3  1  6
  5  9  2  0
  5 10  1  0
  8 11  1  0
  8 12  1  0
  9 13  1  0
 10 14  2  0
 11 15  1  0
 11 16  1  0
 15 16  1  0
 11 17  1  0
 12 18  1  0
 12 19  1  0
 13 20  2  0
 14 20  1  0
 17 21  1  0
 18 21  1  0
 19 22  1  0
 19 23  2  0
 22 24  1  0
 23 25  1  0
 23 26  1  0
 24 27  2  0
 25 27  1  0
 25 28  2  0
 26 29  2  0
 28 29  1  0
M  END
