mac-x0373-mac-x0360
     RDKit          3D

 27 29  0  0  0  0  0  0  0  0999 V2000
    0.3210   13.3020   -0.7100 O   0  0  0  0  0  0  0  0  0  0  0  0
   -0.2530   14.2880   -1.4840 C   0  0  0  0  0  0  0  0  0  0  0  0
    0.4200   15.2820   -1.7140 O   0  0  0  0  0  0  0  0  0  0  0  0
   -1.6860   13.9650   -1.9870 C   0  0  0  0  0  0  0  0  0  0  0  0
   -2.6370   13.6780   -0.3960 S   0  0  0  0  0  0  0  0  0  0  0  0
   -1.8350   12.8550   -3.0750 C   0  0  0  0  0  0  0  0  0  0  0  0
   -2.9380   14.7560   -1.7430 C   0  0  0  0  0  0  0  0  0  0  0  0
   -3.4240   14.9010   -0.2670 O   0  0  0  0  0  0  0  0  0  0  0  0
   -1.7980   13.4660    0.7490 O   0  0  0  0  0  0  0  0  0  0  0  0
   -1.2510   13.0170   -4.3610 C   0  0  0  0  0  0  0  0  0  0  0  0
   -2.5390   11.6680   -2.8440 C   0  0  0  0  0  0  0  0  0  0  0  0
   -3.9860   14.9710   -2.6100 C   0  0  0  0  0  0  0  0  0  0  0  0
   -3.0210   15.2490   -0.4150 C   0  0  0  0  0  0  0  0  0  0  0  0
   -4.0870   12.6030   -0.4580 C   0  0  0  0  0  0  0  0  0  0  0  0
   -1.3800   12.0350   -5.3490 C   0  0  0  0  0  0  0  0  0  0  0  0
   -2.6650   10.6900   -3.8310 C   0  0  0  0  0  0  0  0  0  0  0  0
   -5.0980   15.6420   -2.1470 C   0  0  0  0  0  0  0  0  0  0  0  0
   -4.1340   15.9250    0.0360 C   0  0  0  0  0  0  0  0  0  0  0  0
   -4.2420   11.7050   -1.5010 C   0  0  0  0  0  0  0  0  0  0  0  0
   -5.0750   12.6760    0.5500 C   0  0  0  0  0  0  0  0  0  0  0  0
   -2.0890   10.8720   -5.0800 C   0  0  0  0  0  0  0  0  0  0  0  0
   -5.1740   16.1090   -0.8520 C   0  0  0  0  0  0  0  0  0  0  0  0
   -5.3540   10.8840   -1.5490 C   0  0  0  0  0  0  0  0  0  0  0  0
   -6.1940   11.8400    0.4820 C   0  0  0  0  0  0  0  0  0  0  0  0
   -7.4230   11.8960    1.6920 Cl  0  0  0  0  0  0  0  0  0  0  0  0
   -5.5120    9.7710   -2.8470 Cl  0  0  0  0  0  0  0  0  0  0  0  0
   -6.3350   10.9430   -0.5690 C   0  0  0  0  0  0  0  0  0  0  0  0
  1  2  1  0
  2  3  2  0
  4  2  1  0
  4  5  1  0
  4  6  1  0
  4  7  1  0
  5  8  2  0
  5  9  2  0
  6 10  2  0
  6 11  1  0
  7 12  2  0
  7 13  1  0
  5 14  1  0
 10 15  1  0
 11 16  2  0
 12 17  1  0
 13 18  2  0
 14 19  2  0
 14 20  1  0
 15 21  2  0
 16 21  1  0
 17 22  2  0
 18 22  1  0
 19 23  1  0
 20 24  2  0
 24 25  1  0
 23 26  1  0
 23 27  2  0
 24 27  1  0
M  END
