mac-x0148-diamond-x0290_0_A
     RDKit          3D

 25 28  0  0  0  0  0  0  0  0999 V2000
   -7.1350   13.5910    1.1390 N   0  0  0  0  0  0  0  0  0  0  0  0
   -8.1080   14.6790    0.9760 C   0  0  0  0  0  0  0  0  0  0  0  0
   -5.8650   13.9900    1.8140 C   0  0  0  0  0  0  0  0  0  0  0  0
   -4.6130   13.7290    0.9420 C   0  0  0  0  0  0  0  0  0  0  0  0
   -4.7710   13.4900   -0.2550 O   0  0  0  0  0  0  0  0  0  0  0  0
   -3.3470   13.7630    1.6070 N   0  0  0  0  0  0  0  0  0  0  0  0
   -2.2240   14.6030    1.2510 N   0  0  0  0  0  0  0  0  0  0  0  0
   -0.8120   14.1930    0.9580 C   0  0  0  0  0  0  0  0  0  0  0  0
   -2.6490   15.6750    0.4330 C   0  0  1  0  0  0  0  0  0  0  0  0
   -0.4490   14.7860   -0.3460 N   0  0  0  0  0  0  0  0  0  0  0  0
   -2.5760   15.4210   -1.0960 C   0  0  1  0  0  0  0  0  0  0  0  0
   -3.9790   16.2480    0.6160 N   0  0  0  0  0  0  0  0  0  0  0  0
    0.8610   14.4760   -0.8730 C   0  0  0  0  0  0  0  0  0  0  0  0
   -1.4500   14.4080   -1.3090 C   0  0  1  0  0  0  0  0  0  0  0  0
   -4.0310   15.2250   -1.4180 C   0  0  0  0  0  0  0  0  0  0  0  0
   -4.7540   15.7200   -0.4070 C   0  0  0  0  0  0  0  0  0  0  0  0
   -0.8910   14.2320   -2.6680 N   0  0  0  0  0  0  0  0  0  0  0  0
   -1.8870   14.1330   -3.7370 C   0  0  1  0  0  0  0  0  0  0  0  0
    0.0430   13.0790   -2.7360 C   0  0  0  0  0  0  0  0  0  0  0  0
   -2.6650   15.3640   -4.2220 C   0  0  0  0  0  0  0  0  0  0  0  0
   -1.2880   13.7320   -5.0910 C   0  0  2  0  0  0  0  0  0  0  0  0
   -0.4700   11.9540   -3.6380 C   0  0  0  0  0  0  0  0  0  0  0  0
   -2.5650   13.7360   -5.8820 C   0  0  0  0  0  0  0  0  0  0  0  0
   -3.1700   14.9980   -5.5310 O   0  0  0  0  0  0  0  0  0  0  0  0
   -0.4920   12.4390   -5.0770 C   0  0  0  0  0  0  0  0  0  0  0  0
  1  2  1  0
  1  3  1  0
  3  4  1  0
  4  5  2  0
  4  6  1  0
  6  7  1  0
  7  8  1  0
  7  9  1  0
  8 10  1  0
  9 11  1  0
  9 12  1  1
 10 13  1  0
 10 14  1  0
 11 14  1  0
 11 15  1  1
 12 16  1  0
 15 16  2  0
 14 17  1  6
 17 18  1  0
 17 19  1  0
 18 20  1  6
 18 21  1  0
 19 22  1  0
 21 23  1  6
 20 24  1  0
 23 24  1  0
 21 25  1  0
 22 25  1  0
M  END
