mac-x0159-diamond-x0962_0_A
     RDKit          3D

 23 26  0  0  0  0  0  0  0  0999 V2000
   -3.8630   15.3230    1.8750 N   0  0  0  0  0  0  0  0  0  0  0  0
   -3.3760   14.3530    0.9090 C   0  0  2  0  0  0  0  0  0  0  0  0
   -1.8590   14.3100    0.6230 C   0  0  1  0  0  0  0  0  0  0  0  0
   -4.0440   14.7110   -0.2670 N   0  0  0  0  0  0  0  0  0  0  0  0
   -3.4450   15.9270   -0.7020 C   0  0  0  0  0  0  0  0  0  0  0  0
   -1.4750   14.5980   -0.8340 C   0  0  1  0  0  0  0  0  0  0  0  0
   -1.1250   15.3880    1.2560 N   0  0  0  0  0  0  0  0  0  0  0  0
   -2.2040   15.7050   -1.4280 N   0  0  0  0  0  0  0  0  0  0  0  0
   -0.0230   14.8470   -0.6890 N   0  0  0  0  0  0  0  0  0  0  0  0
    0.1510   14.9980    0.7510 C   0  0  0  0  0  0  0  0  0  0  0  0
   -2.5380   15.6630   -2.8650 C   0  0  2  0  0  0  0  0  0  0  0  0
   -3.0520   14.2390   -3.2310 C   0  0  0  0  0  0  0  0  0  0  0  0
   -1.5060   16.3100   -3.8190 C   0  0  0  0  0  0  0  0  0  0  0  0
   -0.1860   15.9380   -4.0540 C   0  0  0  0  0  0  0  0  0  0  0  0
   -1.9100   17.4270   -4.5580 N   0  0  0  0  0  0  0  0  0  0  0  0
   -4.1590   13.8750   -2.2600 C   0  0  0  0  0  0  0  0  0  0  0  0
   -0.9340   17.8640   -5.3220 C   0  0  0  0  0  0  0  0  0  0  0  0
    0.5360   16.9910   -5.2060 S   0  0  0  0  0  0  0  0  0  0  0  0
   -4.0320   12.9160   -1.2780 N   0  0  0  0  0  0  0  0  0  0  0  0
   -5.4520   14.3530   -2.0970 C   0  0  0  0  0  0  0  0  0  0  0  0
   -1.0480   19.0290   -6.2390 C   0  0  0  0  0  0  0  0  0  0  0  0
   -5.2130   12.8560   -0.5830 C   0  0  0  0  0  0  0  0  0  0  0  0
   -6.0880   13.7130   -1.0570 N   0  0  0  0  0  0  0  0  0  0  0  0
  2  1  1  1
  2  3  1  0
  2  4  1  0
  4  5  1  0
  3  6  1  0
  3  7  1  1
  5  8  1  0
  6  8  1  0
  6  9  1  1
  7 10  1  0
  9 10  1  0
  8 11  1  0
 11 12  1  6
 11 13  1  0
 13 14  2  0
 13 15  1  0
 12 16  1  0
 15 17  2  0
 14 18  1  0
 17 18  1  0
 16 19  1  0
 16 20  2  0
 17 21  1  0
 19 22  1  0
 20 23  1  0
 22 23  2  0
M  END
