mac-x0527-mac-x0139
     RDKit          3D

 25 28  0  0  0  0  0  0  0  0999 V2000
   -3.6910   14.6760   -3.7870 O   0  0  0  0  0  0  0  0  0  0  0  0
   -3.1270   14.8610   -2.7220 C   0  0  0  0  0  0  0  0  0  0  0  0
   -1.7820   14.5500   -2.3960 N   0  0  0  0  0  0  0  0  0  0  0  0
   -3.7790   15.5180   -1.4830 C   0  0  1  0  0  0  0  0  0  0  0  0
   -0.8100   13.6280   -3.0160 C   0  0  2  0  0  0  0  0  0  0  0  0
   -5.2990   15.3860   -1.3920 C   0  0  0  0  0  0  0  0  0  0  0  0
   -2.9510   14.9650   -0.3220 C   0  0  2  0  0  0  0  0  0  0  0  0
   -1.5700   14.9070   -1.0270 C   0  0  1  0  0  0  0  0  0  0  0  0
    0.6350   14.0870   -3.0420 C   0  0  0  0  0  0  0  0  0  0  0  0
   -1.0890   12.8000   -4.2550 C   0  0  0  0  0  0  0  0  0  0  0  0
   -5.7300   14.7700   -0.1510 N   0  0  0  0  0  0  0  0  0  0  0  0
   -3.6590   13.7930    0.3380 C   0  0  0  0  0  0  0  0  0  0  0  0
   -2.6400   15.7920    0.8890 C   0  0  0  0  0  0  0  0  0  0  0  0
   -0.5900   14.1300   -0.3030 N   0  0  0  0  0  0  0  0  0  0  0  0
    1.4780   12.8700   -2.8040 C   0  0  0  0  0  0  0  0  0  0  0  0
   -2.1830   11.9350   -4.2740 C   0  0  0  0  0  0  0  0  0  0  0  0
   -0.2420   12.8580   -5.3820 C   0  0  0  0  0  0  0  0  0  0  0  0
   -4.9860   13.7770    0.3950 C   0  0  0  0  0  0  0  0  0  0  0  0
   -1.1880   16.0240    0.9030 N   0  0  0  0  0  0  0  0  0  0  0  0
   -0.3470   14.8610    0.9210 C   0  0  0  0  0  0  0  0  0  0  0  0
    2.5000   12.8020   -2.1650 O   0  0  0  0  0  0  0  0  0  0  0  0
    0.9620   11.7730   -3.3990 O   0  0  0  0  0  0  0  0  0  0  0  0
   -2.4250   11.1350   -5.3860 C   0  0  0  0  0  0  0  0  0  0  0  0
   -0.4860   12.0580   -6.4920 C   0  0  0  0  0  0  0  0  0  0  0  0
   -1.5760   11.1960   -6.4900 C   0  0  0  0  0  0  0  0  0  0  0  0
  1  2  2  0
  2  3  1  0
  2  4  1  0
  3  5  1  0
  4  6  1  1
  4  7  1  0
  3  8  1  0
  7  8  1  0
  5  9  1  6
  5 10  1  0
  6 11  1  0
  7 12  1  1
  7 13  1  0
  8 14  1  1
  9 15  1  0
 10 16  2  0
 10 17  1  0
 11 18  1  0
 12 18  2  0
 13 19  1  0
 14 20  1  0
 19 20  1  0
 15 21  2  0
 15 22  1  0
 16 23  1  0
 17 24  2  0
 23 25  2  0
 24 25  1  0
M  END
