mac-x0564-diamond-x0628_0_A
     RDKit          3D

 25 28  0  0  0  0  0  0  0  0999 V2000
   -0.0090   12.9520   -2.1820 N   0  0  0  0  0  0  0  0  0  0  0  0
    0.9400   12.2960   -2.8710 C   0  0  0  0  0  0  0  0  0  0  0  0
    1.1130   11.1350   -2.6210 O   0  0  0  0  0  0  0  0  0  0  0  0
   -0.3940   14.0870   -2.5680 C   0  0  0  0  0  0  0  0  0  0  0  0
    1.6490   12.9790   -4.0270 C   0  0  0  0  0  0  0  0  0  0  0  0
   -1.6150   14.4850   -2.0210 C   0  0  0  0  0  0  0  0  0  0  0  0
    0.1050   14.8440   -3.5870 N   0  0  0  0  0  0  0  0  0  0  0  0
    0.7880   13.0190   -5.3100 C   0  0  0  0  0  0  0  0  0  0  0  0
   -2.5490   14.7610   -2.9550 C   0  0  0  0  0  0  0  0  0  0  0  0
   -0.8510   15.1160   -4.4100 C   0  0  0  0  0  0  0  0  0  0  0  0
   -2.0780   14.5970   -0.7500 O   0  0  0  0  0  0  0  0  0  0  0  0
   -2.1780   14.7200   -4.2620 N   0  0  0  0  0  0  0  0  0  0  0  0
   -3.4090   14.9070   -0.9350 C   0  0  0  0  0  0  0  0  0  0  0  0
   -3.7260   15.0050   -2.2930 C   0  0  0  0  0  0  0  0  0  0  0  0
   -0.0840   11.8660   -5.5890 N   0  0  0  0  0  0  0  0  0  0  0  0
   -5.0230   15.2870   -2.6810 C   0  0  0  0  0  0  0  0  0  0  0  0
   -4.3480   15.0920    0.0680 C   0  0  0  0  0  0  0  0  0  0  0  0
    0.2840   11.0050   -6.5500 N   0  0  0  0  0  0  0  0  0  0  0  0
   -1.2890   11.4670   -5.0310 C   0  0  0  0  0  0  0  0  0  0  0  0
   -2.0170   12.1610   -3.9500 C   0  0  0  0  0  0  0  0  0  0  0  0
   -5.9870   15.4720   -1.7000 C   0  0  0  0  0  0  0  0  0  0  0  0
   -5.6480   15.3700   -0.3580 C   0  0  0  0  0  0  0  0  0  0  0  0
   -1.6910   10.3600   -5.6220 N   0  0  0  0  0  0  0  0  0  0  0  0
   -0.7090   10.1120   -6.5340 C   0  0  0  0  0  0  0  0  0  0  0  0
   -0.7390    8.9460   -7.4330 C   0  0  0  0  0  0  0  0  0  0  0  0
  1  2  1  0
  2  3  2  0
  1  4  2  3
  2  5  1  0
  4  6  1  0
  4  7  1  0
  5  8  1  0
  6  9  2  0
  7 10  2  0
  6 11  1  0
  9 12  1  0
 10 12  1  0
 11 13  1  0
  9 14  1  0
 13 14  2  0
  8 15  1  0
 14 16  1  0
 13 17  1  0
 15 18  1  0
 15 19  1  0
 19 20  1  0
 16 21  2  0
 17 22  2  0
 21 22  1  0
 19 23  2  0
 18 24  2  0
 23 24  1  0
 24 25  1  0
M  END
