mac-x0204-mac-x0283
     RDKit          3D

 22 24  0  0  0  0  0  0  0  0999 V2000
    0.6150   12.9110   -2.4390 O   0  0  0  0  0  0  0  0  0  0  0  0
    0.0050   14.1660   -2.7050 C   0  0  0  0  0  0  0  0  0  0  0  0
    1.0350   15.1130   -2.8840 O   0  0  0  0  0  0  0  0  0  0  0  0
   -0.9290   14.5200   -1.5620 C   0  0  0  0  0  0  0  0  0  0  0  0
   -0.9670   14.0900   -3.8500 C   0  0  0  0  0  0  0  0  0  0  0  0
   -2.3370   14.7860   -2.1470 C   0  0  0  0  0  0  0  0  0  0  0  0
   -1.4280   15.2670   -4.4570 C   0  0  0  0  0  0  0  0  0  0  0  0
   -1.4690   12.8870   -4.3350 C   0  0  0  0  0  0  0  0  0  0  0  0
   -2.3490   15.1970   -5.4820 C   0  0  0  0  0  0  0  0  0  0  0  0
   -2.3700   12.7870   -5.3430 N   0  0  0  0  0  0  0  0  0  0  0  0
   -3.4520   14.8250   -1.1780 C   0  0  0  0  0  0  0  0  0  0  0  0
   -2.7690   16.3710   -6.0360 O   0  0  0  0  0  0  0  0  0  0  0  0
   -2.7930   13.9500   -5.8930 C   0  0  0  0  0  0  0  0  0  0  0  0
   -4.7780   14.7630   -1.6340 C   0  0  0  0  0  0  0  0  0  0  0  0
   -3.1480   14.9100    0.1760 C   0  0  0  0  0  0  0  0  0  0  0  0
   -5.7550   14.7650   -0.6550 C   0  0  0  0  0  0  0  0  0  0  0  0
   -4.1520   14.9190    1.1280 C   0  0  0  0  0  0  0  0  0  0  0  0
   -7.0990   14.6990   -0.8450 O   0  0  0  0  0  0  0  0  0  0  0  0
   -5.4830   14.8320    0.6940 C   0  0  0  0  0  0  0  0  0  0  0  0
   -6.7600   14.7850    1.2960 C   0  0  0  0  0  0  0  0  0  0  0  0
   -7.7370   14.7060    0.3870 N   0  0  0  0  0  0  0  0  0  0  0  0
   -6.9370   14.8180    2.6280 N   0  0  0  0  0  0  0  0  0  0  0  0
  2  1  1  0
  2  3  1  0
  2  4  1  0
  2  5  1  0
  4  6  1  0
  5  7  2  0
  5  8  1  0
  7  9  1  0
  8 10  2  0
  6 11  1  0
  9 12  1  0
  9 13  2  0
 10 13  1  0
 11 14  2  0
 11 15  1  0
 14 16  1  0
 15 17  2  0
 16 18  1  0
 16 19  2  0
 17 19  1  0
 19 20  1  0
 18 21  1  0
 20 21  2  0
 20 22  1  0
M  END
