mac-x0437-mac-x0455
     RDKit          3D

 19 21  0  0  0  0  0  0  0  0999 V2000
    0.7420   12.7570   -2.3680 O   0  0  0  0  0  0  0  0  0  0  0  0
    1.3690   12.1100   -3.3640 C   0  0  0  0  0  0  0  0  0  0  0  0
    1.3770   10.8910   -3.3840 O   0  0  0  0  0  0  0  0  0  0  0  0
    0.0260   13.8210   -2.7650 C   0  0  0  0  0  0  0  0  0  0  0  0
    2.0380   12.9390   -4.4470 C   0  0  0  0  0  0  0  0  0  0  0  0
   -1.2240   13.5730   -3.6650 C   0  0  1  0  0  0  0  0  0  0  0  0
    0.3570   14.9600   -2.4120 O   0  0  0  0  0  0  0  0  0  0  0  0
    1.0910   13.2510   -5.5980 C   0  0  0  0  0  0  0  0  0  0  0  0
   -2.4210   13.4350   -2.7270 C   0  0  0  0  0  0  0  0  0  0  0  0
   -1.4010   14.8240   -4.3580 O   0  0  0  0  0  0  0  0  0  0  0  0
   -1.1450   12.4900   -4.7970 C   0  0  0  0  0  0  0  0  0  0  0  0
   -0.0710   12.4170   -5.6480 N   0  0  0  0  0  0  0  0  0  0  0  0
   -2.0210   11.5180   -5.1480 N   0  0  0  0  0  0  0  0  0  0  0  0
   -1.4710   10.8520   -6.2490 C   0  0  0  0  0  0  0  0  0  0  0  0
   -0.2470   11.4140   -6.5770 C   0  0  0  0  0  0  0  0  0  0  0  0
   -1.9410    9.7650   -7.0310 C   0  0  0  0  0  0  0  0  0  0  0  0
    0.5440   10.9630   -7.6490 C   0  0  0  0  0  0  0  0  0  0  0  0
   -1.1600    9.2980   -8.1130 C   0  0  0  0  0  0  0  0  0  0  0  0
    0.0660    9.8960   -8.4150 C   0  0  0  0  0  0  0  0  0  0  0  0
  1  2  1  0
  2  3  2  0
  1  4  1  0
  2  5  1  0
  4  6  1  0
  4  7  2  0
  5  8  1  0
  6  9  1  1
  6 10  1  0
  6 11  1  0
  8 12  1  0
 11 12  1  0
 11 13  2  0
 13 14  1  0
 12 15  1  0
 14 15  2  0
 14 16  1  0
 15 17  1  0
 16 18  2  0
 17 19  2  0
 18 19  1  0
M  END
