mac-x0379-mac-x1494
     RDKit          3D

 13 14  0  0  0  0  0  0  0  0999 V2000
   -4.6360   13.7700   -0.5550 C   0  0  0  0  0  0  0  0  0  0  0  0
   -4.4580   15.2150   -0.9050 C   0  0  2  0  0  0  0  0  0  0  0  0
   -4.7880   15.4430   -2.2820 N   0  0  0  0  0  0  0  0  0  0  0  0
   -2.7910   15.8680   -0.7800 S   0  0  0  0  0  0  0  0  0  0  0  0
   -5.0320   15.8680    0.1500 O   0  0  0  0  0  0  0  0  0  0  0  0
   -3.7000   14.9570   -2.9970 C   0  0  0  0  0  0  0  0  0  0  0  0
   -2.5050   15.0670   -2.3700 C   0  0  0  0  0  0  0  0  0  0  0  0
   -2.9970   14.8950    0.5970 N   0  0  0  0  0  0  0  0  0  0  0  0
   -4.1240   15.4790    1.1320 C   0  0  0  0  0  0  0  0  0  0  0  0
   -1.2130   14.6540   -2.9690 C   0  0  0  0  0  0  0  0  0  0  0  0
   -4.3540   15.6850    2.3110 O   0  0  0  0  0  0  0  0  0  0  0  0
   -1.0980   14.1760   -4.0840 O   0  0  0  0  0  0  0  0  0  0  0  0
   -0.1500   14.8810   -2.1660 O   0  0  0  0  0  0  0  0  0  0  0  0
  2  1  1  1
  2  3  1  0
  2  4  1  0
  2  5  1  0
  3  6  1  0
  4  7  1  0
  6  7  2  0
  4  8  2  0
  5  9  1  0
  8  9  1  0
  7 10  1  0
  9 11  2  0
 10 12  2  0
 10 13  1  0
M  END
