mac-x0379-diamond-x0592_0_A
     RDKit          3D

 20 21  0  0  0  0  0  0  0  0999 V2000
   -2.5410   14.9700    1.5450 C   0  0  0  0  0  0  0  0  0  0  0  0
   -2.3170   15.0260    0.1020 C   0  0  0  0  0  0  0  0  0  0  0  0
   -3.2760   14.9840   -0.6440 N   0  0  0  0  0  0  0  0  0  0  0  0
   -0.8190   15.1390   -0.7010 S   0  0  0  0  0  0  0  0  0  0  0  0
   -2.9440   15.0250   -1.9130 C   0  0  0  0  0  0  0  0  0  0  0  0
   -1.6270   15.1060   -2.2390 C   0  0  0  0  0  0  0  0  0  0  0  0
   -0.9070   15.1570   -3.4620 C   0  0  0  0  0  0  0  0  0  0  0  0
   -4.1670   14.9590   -2.3130 N   0  0  0  0  0  0  0  0  0  0  0  0
   -1.3060   15.0610   -4.6110 O   0  0  0  0  0  0  0  0  0  0  0  0
    0.4140   15.3260   -3.2300 O   0  0  0  0  0  0  0  0  0  0  0  0
   -4.2470   15.0650   -0.9790 C   0  0  0  0  0  0  0  0  0  0  0  0
   -4.5960   15.1610    0.3540 N   0  0  0  0  0  0  0  0  0  0  0  0
   -5.6340   14.9970   -0.8110 C   0  0  0  0  0  0  0  0  0  0  0  0
   -6.6690   15.2700   -1.7050 C   0  0  0  0  0  0  0  0  0  0  0  0
   -6.2480   14.6250    0.3590 C   0  0  0  0  0  0  0  0  0  0  0  0
   -7.8610   15.0860   -1.1370 N   0  0  0  0  0  0  0  0  0  0  0  0
   -7.5640   14.6980    0.1220 N   0  0  0  0  0  0  0  0  0  0  0  0
   -8.6020   14.4080    1.0740 C   0  0  0  0  0  0  0  0  0  0  0  0
   -8.0180   13.9650    2.4120 C   0  0  0  0  0  0  0  0  0  0  0  0
   -7.2080   14.9890    2.9900 O   0  0  0  0  0  0  0  0  0  0  0  0
  1  2  1  0
  2  3  2  0
  2  4  1  0
  3  5  1  0
  4  6  1  0
  5  6  2  0
  6  7  1  0
  5  8  1  0
  7  9  2  0
  7 10  1  0
  8 11  2  3
 11 12  1  0
 11 13  1  0
 13 14  1  0
 13 15  2  0
 14 16  2  0
 15 17  1  0
 16 17  1  0
 17 18  1  0
 18 19  1  0
 19 20  1  0
M  END
