mac-x0301-diamond-x0910_1_A
     RDKit          3D

 17 19  0  0  0  0  0  0  0  0999 V2000
    0.6000   14.7860   -2.5510 O   0  0  0  0  0  0  0  0  0  0  0  0
   -0.6400   14.6330   -3.0520 C   0  0  0  0  0  0  0  0  0  0  0  0
   -0.8900   14.8660   -4.2290 O   0  0  0  0  0  0  0  0  0  0  0  0
   -1.7070   14.1330   -2.0870 C   0  0  1  0  0  0  0  0  0  0  0  0
   -1.4050   14.0800   -0.5780 C   0  0  2  0  0  0  0  0  0  0  0  0
   -3.0360   14.7240   -2.4350 C   0  0  0  0  0  0  0  0  0  0  0  0
   -2.2670   14.8610    0.4070 C   0  0  1  0  0  0  0  0  0  0  0  0
   -3.9530   15.0340   -1.5230 C   0  0  0  0  0  0  0  0  0  0  0  0
   -0.1000   14.4190   -0.1310 O   0  0  0  0  0  0  0  0  0  0  0  0
   -3.8260   14.8880   -0.0250 C   0  0  2  0  0  0  0  0  0  0  0  0
   -1.7400   14.2050    1.5930 O   0  0  0  0  0  0  0  0  0  0  0  0
   -0.3110   14.1850    1.2820 C   0  0  0  0  0  0  0  0  0  0  0  0
   -4.6670   16.0300    0.2840 N   0  0  0  0  0  0  0  0  0  0  0  0
   -4.6830   13.8000    0.5380 N   0  0  0  0  0  0  0  0  0  0  0  0
   -5.9710   14.3970    0.7850 C   0  0  1  0  0  0  0  0  0  0  0  0
   -5.9410   15.4280   -0.1780 N   0  0  0  0  0  0  0  0  0  0  0  0
   -7.0260   13.5070    0.4430 N   0  0  0  0  0  0  0  0  0  0  0  0
  1  2  1  0
  2  3  2  0
  4  2  1  6
  4  5  1  0
  4  6  1  0
  5  7  1  0
  6  8  2  0
  5  9  1  6
  7 10  1  0
 10  8  1  6
  7 11  1  1
  9 12  1  0
 11 12  1  0
 10 13  1  0
 10 14  1  0
 14 15  1  0
 13 16  1  0
 15 16  1  0
 15 17  1  6
M  END
