mac-x0433-mac-x0588
     RDKit          3D

 23 26  0  0  0  0  0  0  0  0999 V2000
   -7.8180   14.4450    1.6120 C   0  0  0  0  0  0  0  0  0  0  0  0
   -6.8540   14.7270    0.5080 C   0  0  0  0  0  0  0  0  0  0  0  0
   -7.3670   14.7590   -0.7510 N   0  0  0  0  0  0  0  0  0  0  0  0
   -5.5030   14.9430    0.7870 C   0  0  0  0  0  0  0  0  0  0  0  0
   -4.7500   15.1900   -0.3260 C   0  0  0  0  0  0  0  0  0  0  0  0
   -6.5190   15.0060   -1.7380 C   0  0  0  0  0  0  0  0  0  0  0  0
   -6.9450   15.0380   -3.0450 N   0  0  0  0  0  0  0  0  0  0  0  0
   -5.2580   15.2170   -1.5570 N   0  0  0  0  0  0  0  0  0  0  0  0
   -3.3290   15.4630   -0.5920 C   0  0  2  0  0  0  0  0  0  0  0  0
   -3.2370   14.6360   -1.7880 N   0  0  0  0  0  0  0  0  0  0  0  0
   -2.0530   15.2800    0.2530 C   0  0  2  0  0  0  0  0  0  0  0  0
   -2.4020   15.3120   -2.6940 C   0  0  0  0  0  0  0  0  0  0  0  0
   -1.1130   14.6900   -0.7910 C   0  0  1  0  0  0  0  0  0  0  0  0
   -1.7420   14.4790    1.4200 N   0  0  0  0  0  0  0  0  0  0  0  0
   -1.1380   15.4670   -2.0220 N   0  0  0  0  0  0  0  0  0  0  0  0
    0.1210   14.7660   -0.0620 N   0  0  0  0  0  0  0  0  0  0  0  0
   -0.2990   14.2330    1.2440 C   0  0  0  0  0  0  0  0  0  0  0  0
   -0.0980   15.1970   -2.9850 C   0  0  0  0  0  0  0  0  0  0  0  0
   -0.3050   15.8350   -4.3740 C   0  0  1  0  0  0  0  0  0  0  0  0
   -1.2270   16.9510   -4.2720 O   0  0  0  0  0  0  0  0  0  0  0  0
    0.9820   16.3730   -4.9540 C   0  0  0  0  0  0  0  0  0  0  0  0
    0.6890   17.8030   -5.3490 C   0  0  0  0  0  0  0  0  0  0  0  0
   -0.8140   17.9310   -5.2200 C   0  0  0  0  0  0  0  0  0  0  0  0
  1  2  1  0
  2  3  2  0
  2  4  1  0
  4  5  2  0
  3  6  1  0
  6  7  1  0
  5  8  1  0
  6  8  2  0
  9  5  1  1
  9 10  1  0
  9 11  1  0
 10 12  1  0
 11 13  1  0
 11 14  1  1
 12 15  1  0
 13 15  1  0
 13 16  1  1
 14 17  1  0
 16 17  1  0
 15 18  1  0
 19 18  1  1
 19 20  1  0
 19 21  1  0
 21 22  1  0
 20 23  1  0
 22 23  1  0
M  END
