mac-x0576-diamond-x0895_0_A
     RDKit          3D

 13 14  0  0  0  0  0  0  0  0999 V2000
   -0.0470   13.8720    1.4860 N   0  0  0  0  0  0  0  0  0  0  0  0
   -0.5940   14.9260    0.7330 C   0  0  2  0  0  0  0  0  0  0  0  0
   -1.8980   15.1550    1.2640 N   0  0  0  0  0  0  0  0  0  0  0  0
   -0.6130   14.4420   -0.5890 N   0  0  0  0  0  0  0  0  0  0  0  0
   -1.6530   14.6540   -1.4430 C   0  0  0  0  0  0  0  0  0  0  0  0
   -2.9850   14.4230    0.6710 C   0  0  2  0  0  0  0  0  0  0  0  0
   -1.4200   14.9480   -2.6130 O   0  0  0  0  0  0  0  0  0  0  0  0
   -3.0500   14.5050   -0.8580 C   0  0  1  0  0  0  0  0  0  0  0  0
   -4.1840   14.8480    1.3410 N   0  0  0  0  0  0  0  0  0  0  0  0
   -5.3660   15.0100    0.6650 C   0  0  0  0  0  0  0  0  0  0  0  0
   -3.9590   15.5630   -1.3440 N   0  0  0  0  0  0  0  0  0  0  0  0
   -6.4250   14.8200    1.2560 O   0  0  0  0  0  0  0  0  0  0  0  0
   -5.3220   15.4220   -0.8100 C   0  0  0  0  0  0  0  0  0  0  0  0
  2  1  1  1
  2  3  1  0
  2  4  1  0
  4  5  1  0
  6  3  1  1
  5  7  2  0
  5  8  1  0
  6  8  1  0
  6  9  1  0
  9 10  1  0
  8 11  1  1
 10 12  2  0
 10 13  1  0
 11 13  1  0
M  END
