mac-x0472-mac-x0381
     RDKit          3D

 30 33  0  0  0  0  0  0  0  0999 V2000
   -4.3930   15.3990   -2.4860 O   0  0  0  0  0  0  0  0  0  0  0  0
   -3.3950   14.3870   -2.7480 S   0  0  0  0  0  0  0  0  0  0  0  0
   -2.7590   14.2790   -4.0450 O   0  0  0  0  0  0  0  0  0  0  0  0
   -2.1450   14.4380   -1.6170 N   0  0  0  0  0  0  0  0  0  0  0  0
   -4.1040   12.7980   -2.3540 C   0  0  0  0  0  0  0  0  0  0  0  0
   -2.6730   14.7140   -0.3050 C   0  0  0  0  0  0  0  0  0  0  0  0
   -3.4100   11.6320   -2.6910 C   0  0  0  0  0  0  0  0  0  0  0  0
   -5.3490   12.7220   -1.7140 C   0  0  0  0  0  0  0  0  0  0  0  0
   -1.9790   14.4090    0.7600 N   0  0  0  0  0  0  0  0  0  0  0  0
   -4.1910   15.4390   -0.0410 S   0  0  0  0  0  0  0  0  0  0  0  0
   -3.9630   10.3850   -2.3930 C   0  0  0  0  0  0  0  0  0  0  0  0
   -5.8950   11.4720   -1.4180 C   0  0  0  0  0  0  0  0  0  0  0  0
   -3.8350   15.3090    1.6230 C   0  0  0  0  0  0  0  0  0  0  0  0
   -2.6660   14.7590    1.8970 N   0  0  0  0  0  0  0  0  0  0  0  0
   -5.2030   10.3120   -1.7600 C   0  0  0  0  0  0  0  0  0  0  0  0
   -4.7920   15.8090    2.6370 C   0  0  0  0  0  0  0  0  0  0  0  0
   -6.2000   15.0270    2.7500 C   0  0  0  0  0  0  0  0  0  0  0  0
   -7.5370   15.4440    2.6670 N   0  0  0  0  0  0  0  0  0  0  0  0
   -8.3570   14.7900    3.3880 C   0  0  0  0  0  0  0  0  0  0  0  0
   -8.0850   13.7360    4.2350 N   0  0  0  0  0  0  0  0  0  0  0  0
   -9.7210   15.2770    3.1920 C   0  0  0  0  0  0  0  0  0  0  0  0
   -9.8870   16.0600    2.0650 C   0  0  0  0  0  0  0  0  0  0  0  0
  -10.7800   14.9900    4.0430 C   0  0  0  0  0  0  0  0  0  0  0  0
  -11.1160   16.5770    1.7450 C   0  0  0  0  0  0  0  0  0  0  0  0
  -12.0410   15.5070    3.7330 C   0  0  0  0  0  0  0  0  0  0  0  0
  -12.2160   16.3000    2.5830 C   0  0  0  0  0  0  0  0  0  0  0  0
  -11.2690   17.3650    0.6030 C   0  0  0  0  0  0  0  0  0  0  0  0
  -13.4630   16.8290    2.2390 C   0  0  0  0  0  0  0  0  0  0  0  0
  -12.5130   17.8840    0.2780 C   0  0  0  0  0  0  0  0  0  0  0  0
  -13.6070   17.6170    1.0930 C   0  0  0  0  0  0  0  0  0  0  0  0
  1  2  2  0
  2  3  2  0
  2  4  1  0
  2  5  1  0
  4  6  1  0
  5  7  2  0
  5  8  1  0
  6  9  2  0
  6 10  1  0
  7 11  1  0
  8 12  2  0
 10 13  1  0
  9 14  1  0
 13 14  2  0
 11 15  2  0
 12 15  1  0
 13 16  1  0
 16 17  1  0
 17 18  1  0
 18 19  2  3
 19 20  1  0
 19 21  1  0
 21 22  2  0
 21 23  1  0
 22 24  1  0
 23 25  2  0
 24 26  2  0
 25 26  1  0
 24 27  1  0
 26 28  1  0
 27 29  2  0
 28 30  2  0
 29 30  1  0
M  END
