mac-x0346-mac-x0360
     RDKit          3D

 22 23  0  0  0  0  0  0  0  0999 V2000
   -7.8630   14.5900    1.4830 O   0  0  0  0  0  0  0  0  0  0  0  0
   -7.9420   14.8740    0.1040 N   0  0  0  0  0  0  0  0  0  0  0  0
   -6.7850   15.0570   -0.6190 C   0  0  0  0  0  0  0  0  0  0  0  0
   -6.8530   15.0950   -1.8470 O   0  0  0  0  0  0  0  0  0  0  0  0
   -5.4480   15.2120    0.0350 C   0  0  0  0  0  0  0  0  0  0  0  0
   -4.2770   15.2100   -0.6630 C   0  0  0  0  0  0  0  0  0  0  0  0
   -5.3250   15.3520    1.4250 C   0  0  0  0  0  0  0  0  0  0  0  0
   -4.0970   15.0350   -2.0410 N   0  0  0  0  0  0  0  0  0  0  0  0
   -3.0510   15.3380   -0.0620 C   0  0  0  0  0  0  0  0  0  0  0  0
   -4.0730   15.4960    2.0270 C   0  0  0  0  0  0  0  0  0  0  0  0
   -3.2560   13.8480   -1.6530 S   0  0  1  0  0  0  0  0  0  0  0  0
   -2.9280   15.4840    1.2720 C   0  0  0  0  0  0  0  0  0  0  0  0
   -2.4200   13.5190   -3.0500 N   0  0  0  0  0  0  0  0  0  0  0  0
   -2.2330   13.8220   -0.6270 O   0  0  0  0  0  0  0  0  0  0  0  0
   -4.4610   12.6470   -1.1870 C   0  0  0  0  0  0  0  0  0  0  0  0
   -4.5630   11.5590   -2.0150 C   0  0  0  0  0  0  0  0  0  0  0  0
   -5.2890   12.7740   -0.0450 C   0  0  0  0  0  0  0  0  0  0  0  0
   -5.4930   10.5850   -1.7270 C   0  0  0  0  0  0  0  0  0  0  0  0
   -6.2300   11.7710    0.2240 C   0  0  0  0  0  0  0  0  0  0  0  0
   -7.2790   11.8530    1.5950 Cl  0  0  0  0  0  0  0  0  0  0  0  0
   -5.5940    9.2330   -2.7730 Cl  0  0  0  0  0  0  0  0  0  0  0  0
   -6.3330   10.6790   -0.6220 C   0  0  0  0  0  0  0  0  0  0  0  0
  1  2  1  0
  2  3  1  0
  3  4  2  0
  3  5  1  0
  5  6  2  0
  5  7  1  0
  6  8  1  0
  6  9  1  0
  7 10  2  0
  8 11  2  0
  9 12  2  0
 10 12  1  0
 11 13  1  6
 11 14  2  0
 11 15  1  0
 15 16  2  0
 15 17  1  0
 16 18  1  0
 17 19  2  0
 19 20  1  0
 18 21  1  0
 18 22  2  0
 19 22  1  0
M  END
