mac-x0213-mac-x0193
     RDKit          3D

 23 25  0  0  0  0  0  0  0  0999 V2000
   -0.9530   12.1560   -2.7530 O   0  0  0  0  0  0  0  0  0  0  0  0
    0.1920   12.7450   -3.3480 C   0  0  0  0  0  0  0  0  0  0  0  0
    1.0840   12.9560   -2.2560 O   0  0  0  0  0  0  0  0  0  0  0  0
    0.7550   11.7230   -4.3270 C   0  0  0  0  0  0  0  0  0  0  0  0
   -0.1580   14.0230   -4.1240 C   0  0  0  0  0  0  0  0  0  0  0  0
    0.0780   11.6320   -5.6200 N   0  0  0  0  0  0  0  0  0  0  0  0
   -1.5740   14.5780   -3.9700 C   0  0  0  0  0  0  0  0  0  0  0  0
    0.7440   15.2420   -3.8020 C   0  0  0  0  0  0  0  0  0  0  0  0
    0.8060   11.4030   -6.7560 C   0  0  0  0  0  0  0  0  0  0  0  0
   -1.3860   15.8970   -4.6290 C   0  0  0  0  0  0  0  0  0  0  0  0
   -0.0410   16.2870   -4.5300 C   0  0  0  0  0  0  0  0  0  0  0  0
    1.9420   11.8000   -6.8620 O   0  0  0  0  0  0  0  0  0  0  0  0
    0.1110   10.6690   -7.7080 N   0  0  0  0  0  0  0  0  0  0  0  0
   -2.3220   16.6810   -5.2590 C   0  0  0  0  0  0  0  0  0  0  0  0
    0.3870   17.4840   -5.0650 C   0  0  0  0  0  0  0  0  0  0  0  0
   -1.8990   17.8920   -5.8040 C   0  0  0  0  0  0  0  0  0  0  0  0
   -0.5530   18.2860   -5.7050 C   0  0  0  0  0  0  0  0  0  0  0  0
    0.7680   10.1570   -8.9170 C   0  0  0  0  0  0  0  0  0  0  0  0
    1.3190    8.7580   -8.6750 C   0  0  0  0  0  0  0  0  0  0  0  0
   -0.1360   10.1440  -10.1570 C   0  0  0  0  0  0  0  0  0  0  0  0
    2.0140    8.1410   -9.8990 C   0  0  0  0  0  0  0  0  0  0  0  0
    0.5540    9.5690  -11.4030 C   0  0  0  0  0  0  0  0  0  0  0  0
    1.1710    8.1940  -11.1710 C   0  0  0  0  0  0  0  0  0  0  0  0
  2  1  1  0
  2  3  1  0
  2  4  1  0
  2  5  1  0
  4  6  1  0
  5  7  1  0
  5  8  1  0
  6  9  1  0
  7 10  1  0
  8 11  1  0
 10 11  2  0
  9 12  2  0
  9 13  1  0
 10 14  1  0
 11 15  1  0
 14 16  2  0
 15 17  2  0
 16 17  1  0
 13 18  1  0
 18 19  1  0
 18 20  1  0
 19 21  1  0
 20 22  1  0
 21 23  1  0
 22 23  1  0
M  END
