mac-x0341-mac-x0398
     RDKit          3D

 15 16  0  0  0  0  0  0  0  0999 V2000
   -6.8530   14.4970    2.1050 N   0  0  0  0  0  0  0  0  0  0  0  0
   -6.0620   14.6870    1.0120 C   0  0  0  0  0  0  0  0  0  0  0  0
   -4.7280   14.5870    1.2220 N   0  0  0  0  0  0  0  0  0  0  0  0
   -6.6040   14.9430   -0.1370 N   0  0  0  0  0  0  0  0  0  0  0  0
   -5.8450   15.1410   -1.2850 C   0  0  0  0  0  0  0  0  0  0  0  0
   -3.9030   14.6660    0.2220 C   0  0  0  0  0  0  0  0  0  0  0  0
   -6.3970   15.4740   -2.3230 O   0  0  0  0  0  0  0  0  0  0  0  0
   -4.3340   14.8850   -1.2210 C   0  0  1  0  0  0  0  0  0  0  0  0
   -2.4540   14.5540    0.5040 C   0  0  0  0  0  0  0  0  0  0  0  0
   -3.9430   13.9200   -2.3010 C   0  0  0  0  0  0  0  0  0  0  0  0
   -1.6170   15.1410   -0.3530 C   0  0  0  0  0  0  0  0  0  0  0  0
   -3.3630   15.7850   -1.9090 C   0  0  0  0  0  0  0  0  0  0  0  0
   -4.6610   13.4740   -3.1720 O   0  0  0  0  0  0  0  0  0  0  0  0
   -2.6250   13.6170   -2.3230 O   0  0  0  0  0  0  0  0  0  0  0  0
   -2.0900   15.8680   -1.5020 C   0  0  0  0  0  0  0  0  0  0  0  0
  1  2  1  0
  2  3  1  0
  2  4  2  0
  4  5  1  0
  3  6  2  0
  5  7  2  0
  5  8  1  0
  6  8  1  0
  6  9  1  0
  8 10  1  6
  9 11  2  0
  8 12  1  0
 10 13  2  0
 10 14  1  0
 11 15  1  0
 12 15  2  0
M  END
