mac-x0411-mac-x0178
     RDKit          3D

 24 25  0  0  0  0  0  0  0  0999 V2000
    0.7170    8.7060   -7.7700 Cl  0  0  0  0  0  0  0  0  0  0  0  0
   -0.6090    9.3560   -6.8730 C   0  0  0  0  0  0  0  0  0  0  0  0
   -0.5120   10.5620   -6.1600 C   0  0  0  0  0  0  0  0  0  0  0  0
   -1.8000    8.6270   -6.8880 C   0  0  0  0  0  0  0  0  0  0  0  0
    0.7000   11.2360   -6.1800 O   0  0  0  0  0  0  0  0  0  0  0  0
   -1.6550   11.0160   -5.4730 C   0  0  0  0  0  0  0  0  0  0  0  0
   -2.9150    9.0900   -6.1990 C   0  0  0  0  0  0  0  0  0  0  0  0
   -1.7030   12.4700   -4.5730 Cl  0  0  0  0  0  0  0  0  0  0  0  0
    0.9130   12.2840   -5.2230 C   0  0  0  0  0  0  0  0  0  0  0  0
   -2.8380   10.2810   -5.4960 C   0  0  0  0  0  0  0  0  0  0  0  0
    0.6750   11.8150   -3.7910 C   0  0  0  0  0  0  0  0  0  0  0  0
    0.6140   12.9740   -2.8550 C   0  0  0  0  0  0  0  0  0  0  0  0
    0.5100   10.6770   -3.3810 O   0  0  0  0  0  0  0  0  0  0  0  0
    0.9870   12.8980   -1.6920 O   0  0  0  0  0  0  0  0  0  0  0  0
    0.0590   14.1540   -3.5200 C   0  0  0  0  0  0  0  0  0  0  0  0
    0.8620   15.2750   -3.7250 C   0  0  0  0  0  0  0  0  0  0  0  0
   -1.2680   14.1370   -3.9620 C   0  0  0  0  0  0  0  0  0  0  0  0
    0.3350   16.3810   -4.3890 C   0  0  0  0  0  0  0  0  0  0  0  0
   -1.7960   15.2320   -4.6240 C   0  0  0  0  0  0  0  0  0  0  0  0
   -0.9930   16.3420   -4.8370 C   0  0  0  0  0  0  0  0  0  0  0  0
   -1.6810   17.7220   -5.7000 S   0  0  0  0  0  0  0  0  0  0  0  0
   -0.3220   18.3730   -6.4320 N   0  0  0  0  0  0  0  0  0  0  0  0
   -2.5490   17.2260   -6.7370 O   0  0  0  0  0  0  0  0  0  0  0  0
   -2.1190   18.6910   -4.7370 O   0  0  0  0  0  0  0  0  0  0  0  0
  1  2  1  0
  2  3  2  0
  2  4  1  0
  3  5  1  0
  3  6  1  0
  4  7  2  0
  6  8  1  0
  5  9  1  0
  6 10  2  0
  7 10  1  0
  9 11  1  0
 11 12  1  0
 11 13  2  0
 12 14  2  0
 12 15  1  0
 15 16  2  0
 15 17  1  0
 16 18  1  0
 17 19  2  0
 18 20  2  0
 19 20  1  0
 20 21  1  0
 21 22  1  0
 21 23  2  0
 21 24  2  0
M  END
