mac-x0137-diamond-x0592_0_A
     RDKit          3D

 27 30  0  0  0  0  0  0  0  0999 V2000
   -2.7790   12.7650   -4.0340 F   0  0  0  0  0  0  0  0  0  0  0  0
   -1.7150   13.5400   -4.4130 C   0  0  2  0  0  0  0  0  0  0  0  0
   -0.5410   12.6020   -4.7350 C   0  0  0  0  0  0  0  0  0  0  0  0
   -1.4020   14.5230   -3.2750 C   0  0  0  0  0  0  0  0  0  0  0  0
   -0.8120   13.8060   -2.1190 N   0  0  0  0  0  0  0  0  0  0  0  0
    0.1530   12.0150   -3.4960 C   0  0  0  0  0  0  0  0  0  0  0  0
    0.4300   13.0750   -2.4430 C   0  0  0  0  0  0  0  0  0  0  0  0
   -1.0180   14.1690   -0.7730 C   0  0  0  0  0  0  0  0  0  0  0  0
    0.0270   14.0260    0.0940 N   0  0  0  0  0  0  0  0  0  0  0  0
   -2.1380   14.6550   -0.1930 C   0  0  0  0  0  0  0  0  0  0  0  0
   -0.1810   14.1400    1.4400 C   0  0  0  0  0  0  0  0  0  0  0  0
   -2.1550   14.9780    1.2300 C   0  0  0  0  0  0  0  0  0  0  0  0
   -3.4460   15.0180   -0.4960 C   0  0  0  0  0  0  0  0  0  0  0  0
   -4.1430   14.7780   -1.6420 C   0  0  2  0  0  0  0  0  0  0  0  0
   -1.1840   14.6060    2.0300 N   0  0  0  0  0  0  0  0  0  0  0  0
   -3.2070   15.6210    1.6190 N   0  0  0  0  0  0  0  0  0  0  0  0
   -3.9820   15.6160    0.5430 C   0  0  0  0  0  0  0  0  0  0  0  0
   -3.7510   13.4520   -1.9840 N   0  0  0  0  0  0  0  0  0  0  0  0
   -3.7430   15.6630   -2.6560 O   0  0  0  0  0  0  0  0  0  0  0  0
   -5.5530   14.8540   -1.2070 C   0  0  0  0  0  0  0  0  0  0  0  0
   -6.6750   15.2980   -1.9110 C   0  0  0  0  0  0  0  0  0  0  0  0
   -6.0670   14.4920    0.0400 C   0  0  0  0  0  0  0  0  0  0  0  0
   -7.7910   15.2310   -1.1910 N   0  0  0  0  0  0  0  0  0  0  0  0
   -7.3950   14.7390   -0.0050 N   0  0  0  0  0  0  0  0  0  0  0  0
   -8.3700   14.5370    1.0430 C   0  0  0  0  0  0  0  0  0  0  0  0
   -7.7560   13.9860    2.3240 C   0  0  0  0  0  0  0  0  0  0  0  0
   -7.1510   15.0210    3.0930 O   0  0  0  0  0  0  0  0  0  0  0  0
  2  1  1  1
  2  3  1  0
  2  4  1  0
  4  5  1  0
  3  6  1  0
  5  7  1  0
  6  7  1  0
  5  8  1  0
  8  9  1  0
  8 10  2  0
  9 11  1  0
 10 12  1  0
 10 13  1  0
 13 14  1  0
 11 15  2  0
 12 15  1  0
 12 16  2  0
 13 17  2  0
 16 17  1  0
 14 18  1  6
 14 19  1  0
 14 20  1  0
 20 21  1  0
 20 22  2  0
 21 23  2  0
 22 24  1  0
 23 24  1  0
 24 25  1  0
 25 26  1  0
 26 27  1  0
M  END
