mac-x0138-mac-x0344
     RDKit          3D

 27 29  0  0  0  0  0  0  0  0999 V2000
   -1.7520   14.8560   -3.5120 C   0  0  0  0  0  0  0  0  0  0  0  0
   -2.6870   15.0250   -2.4250 N   0  0  0  0  0  0  0  0  0  0  0  0
   -4.0100   15.3150   -2.5030 C   0  0  0  0  0  0  0  0  0  0  0  0
   -2.3910   14.9230   -1.1070 C   0  0  0  0  0  0  0  0  0  0  0  0
   -4.5650   15.4090   -1.3050 N   0  0  0  0  0  0  0  0  0  0  0  0
   -3.5380   15.1600   -0.4210 C   0  0  0  0  0  0  0  0  0  0  0  0
   -1.2370   14.6610   -0.5940 N   0  0  0  0  0  0  0  0  0  0  0  0
   -3.4430   15.1090    0.9850 C   0  0  0  0  0  0  0  0  0  0  0  0
   -1.2170   14.6160    0.7270 C   0  0  0  0  0  0  0  0  0  0  0  0
   -4.5470   15.3610    1.7710 N   0  0  0  0  0  0  0  0  0  0  0  0
    0.0660   14.3280    1.0170 N   0  0  0  0  0  0  0  0  0  0  0  0
   -2.2390   14.8110    1.5720 N   0  0  0  0  0  0  0  0  0  0  0  0
    0.5850   14.2070   -0.3550 C   0  0  0  0  0  0  0  0  0  0  0  0
   -0.2760   13.2300   -1.1460 C   0  0  0  0  0  0  0  0  0  0  0  0
    0.5130   12.2750   -2.0120 C   0  0  0  0  0  0  0  0  0  0  0  0
    1.4070   13.0410   -2.8490 N   0  0  0  0  0  0  0  0  0  0  0  0
    1.3700   12.7350   -4.0670 C   0  0  0  0  0  0  0  0  0  0  0  0
    2.0760   13.2910   -5.0580 O   0  0  0  0  0  0  0  0  0  0  0  0
    0.4310   11.6020   -4.4880 C   0  0  0  0  0  0  0  0  0  0  0  0
    0.1580   10.7270   -3.6750 O   0  0  0  0  0  0  0  0  0  0  0  0
   -0.0170   11.6840   -5.7700 N   0  0  0  0  0  0  0  0  0  0  0  0
   -0.7950   10.6790   -6.3410 C   0  0  0  0  0  0  0  0  0  0  0  0
   -0.4630   10.0030   -7.5100 C   0  0  0  0  0  0  0  0  0  0  0  0
   -1.9800   10.3480   -5.6700 C   0  0  0  0  0  0  0  0  0  0  0  0
   -1.3070    9.0060   -8.0050 C   0  0  0  0  0  0  0  0  0  0  0  0
   -2.8220    9.3530   -6.1630 C   0  0  0  0  0  0  0  0  0  0  0  0
   -2.4850    8.6800   -7.3330 C   0  0  0  0  0  0  0  0  0  0  0  0
  1  2  1  0
  2  3  1  0
  2  4  1  0
  3  5  2  0
  4  6  2  0
  5  6  1  0
  4  7  1  0
  6  8  1  0
  7  9  2  0
  8 10  1  0
  9 11  1  0
  8 12  2  0
  9 12  1  0
 11 13  1  0
 13 14  1  0
 14 15  1  0
 15 16  1  0
 16 17  2  3
 17 18  1  0
 17 19  1  0
 19 20  2  0
 19 21  1  0
 21 22  1  0
 22 23  2  0
 22 24  1  0
 23 25  1  0
 24 26  2  0
 25 27  2  0
 26 27  1  0
M  END
