mac-x0587-mac-x0590
     RDKit          3D

 24 26  0  0  0  0  0  0  0  0999 V2000
   -0.2880   16.1700   -4.7280 C   0  0  0  0  0  0  0  0  0  0  0  0
   -0.6990   15.3100   -3.5430 C   0  0  2  0  0  0  0  0  0  0  0  0
    0.1840   13.7670   -3.4800 S   0  0  1  0  0  0  0  0  0  0  0  0
   -2.1840   15.1450   -3.2810 C   0  0  0  0  0  0  0  0  0  0  0  0
   -0.6870   12.4430   -2.6810 C   0  0  0  0  0  0  0  0  0  0  0  0
   -2.9700   15.2470   -4.2350 O   0  0  0  0  0  0  0  0  0  0  0  0
   -2.6290   14.8900   -2.0060 N   0  0  0  0  0  0  0  0  0  0  0  0
    0.4490   13.0610   -5.0500 C   0  0  2  0  0  0  0  0  0  0  0  0
    0.4130   11.4800   -2.3900 C   0  0  0  0  0  0  0  0  0  0  0  0
   -3.9760   15.1370   -1.4910 C   0  0  0  0  0  0  0  0  0  0  0  0
   -1.7940   15.0320   -0.8530 C   0  0  1  0  0  0  0  0  0  0  0  0
    0.6160   11.6120   -4.9020 C   0  0  0  0  0  0  0  0  0  0  0  0
    1.8230   13.3590   -5.4800 C   0  0  0  0  0  0  0  0  0  0  0  0
    0.3350   10.2700   -2.3040 O   0  0  0  0  0  0  0  0  0  0  0  0
    1.5730   12.1510   -2.2560 O   0  0  0  0  0  0  0  0  0  0  0  0
   -1.5590   16.3510   -0.5760 O   0  0  0  0  0  0  0  0  0  0  0  0
   -3.9000   14.8230    0.0230 C   0  0  1  0  0  0  0  0  0  0  0  0
   -2.5260   14.3860    0.1750 N   0  0  0  0  0  0  0  0  0  0  0  0
   -0.5560   14.3550   -0.6970 N   0  0  0  0  0  0  0  0  0  0  0  0
    2.6680   12.5660   -4.5090 C   0  0  0  0  0  0  0  0  0  0  0  0
    1.8090   11.5120   -4.0820 O   0  0  0  0  0  0  0  0  0  0  0  0
   -4.1280   15.9210    0.9400 N   0  0  0  0  0  0  0  0  0  0  0  0
   -1.7290   14.7810    1.3230 N   0  0  0  0  0  0  0  0  0  0  0  0
   -0.3790   14.5190    0.7690 C   0  0  0  0  0  0  0  0  0  0  0  0
  2  1  1  6
  2  3  1  0
  2  4  1  0
  3  5  1  1
  4  6  2  0
  4  7  1  0
  3  8  1  0
  5  9  1  0
  7 10  1  0
  7 11  1  0
  8 12  1  1
  8 13  1  0
  9 14  2  0
  9 15  1  0
 11 16  1  1
 10 17  1  0
 11 18  1  0
 17 18  1  0
 11 19  1  0
 13 20  1  0
 12 21  1  0
 20 21  1  0
 17 22  1  1
 18 23  1  0
 19 24  1  0
 23 24  1  0
M  END
