mac-x0277-mac-x0361
     RDKit          3D

 23 24  0  0  0  0  0  0  0  0999 V2000
   -1.2060   18.4600   -5.2630 Cl  0  0  0  0  0  0  0  0  0  0  0  0
   -0.5100   16.9050   -4.9860 C   0  0  0  0  0  0  0  0  0  0  0  0
   -1.2450   15.7350   -5.1500 C   0  0  0  0  0  0  0  0  0  0  0  0
    0.8250   16.8370   -4.5910 C   0  0  0  0  0  0  0  0  0  0  0  0
   -2.6910   15.7080   -5.5650 C   0  0  0  0  0  0  0  0  0  0  0  0
   -0.6220   14.4970   -4.9130 C   0  0  0  0  0  0  0  0  0  0  0  0
    1.4360   15.5960   -4.3560 C   0  0  0  0  0  0  0  0  0  0  0  0
   -3.4080   14.9200   -4.5130 C   0  0  0  0  0  0  0  0  0  0  0  0
    0.7150   14.4110   -4.5170 C   0  0  0  0  0  0  0  0  0  0  0  0
    1.3520   13.0610   -4.2670 C   0  0  0  0  0  0  0  0  0  0  0  0
   -2.7310   15.1030   -3.2750 O   0  0  0  0  0  0  0  0  0  0  0  0
    0.9630   12.4360   -2.9420 C   0  0  0  0  0  0  0  0  0  0  0  0
   -3.5320   15.0020   -2.2080 C   0  0  0  0  0  0  0  0  0  0  0  0
    0.2450   11.3000   -3.0890 O   0  0  0  0  0  0  0  0  0  0  0  0
    1.2160   12.8370   -1.8230 O   0  0  0  0  0  0  0  0  0  0  0  0
   -3.2000   14.8490   -0.8680 C   0  0  0  0  0  0  0  0  0  0  0  0
   -4.8600   15.0640   -2.5960 C   0  0  0  0  0  0  0  0  0  0  0  0
   -4.2270   14.7500    0.0800 C   0  0  0  0  0  0  0  0  0  0  0  0
   -5.8750   14.9710   -1.6740 C   0  0  0  0  0  0  0  0  0  0  0  0
   -5.5690   14.8090   -0.3300 C   0  0  0  0  0  0  0  0  0  0  0  0
   -6.6660   14.6920    0.6600 C   0  0  0  0  0  0  0  0  0  0  0  0
   -6.4210   14.8990    1.9920 N   0  0  0  0  0  0  0  0  0  0  0  0
   -7.7990   14.4280    0.2820 O   0  0  0  0  0  0  0  0  0  0  0  0
  1  2  1  0
  2  3  2  0
  2  4  1  0
  3  5  1  0
  3  6  1  0
  4  7  2  0
  5  8  1  0
  6  9  2  0
  7  9  1  0
  9 10  1  0
  8 11  1  0
 10 12  1  0
 11 13  1  0
 12 14  1  0
 12 15  2  0
 13 16  2  0
 13 17  1  0
 16 18  1  0
 17 19  2  0
 18 20  2  0
 19 20  1  0
 20 21  1  0
 21 22  1  0
 21 23  2  0
M  END
