mac-x0206-mac-x0510
     RDKit          3D

 20 22  0  0  0  0  0  0  0  0999 V2000
   -6.2930   15.8890   -2.3170 N   0  0  0  0  0  0  0  0  0  0  0  0
   -5.6570   15.1280   -1.4340 C   0  0  0  0  0  0  0  0  0  0  0  0
   -4.5110   14.7270   -1.8330 N   0  0  0  0  0  0  0  0  0  0  0  0
   -6.4330   14.9070   -0.1940 C   0  0  0  0  0  0  0  0  0  0  0  0
   -7.7730   14.6240   -0.3970 C   0  0  0  0  0  0  0  0  0  0  0  0
   -5.9210   14.9740    1.1140 C   0  0  0  0  0  0  0  0  0  0  0  0
   -3.7520   13.9630   -1.0580 N   0  0  0  0  0  0  0  0  0  0  0  0
   -8.3060   14.5500   -1.6530 O   0  0  0  0  0  0  0  0  0  0  0  0
   -8.6280   14.4060    0.6700 C   0  0  0  0  0  0  0  0  0  0  0  0
   -6.7940   14.7550    2.1900 C   0  0  0  0  0  0  0  0  0  0  0  0
   -4.2150   13.6480    0.2460 C   0  0  0  0  0  0  0  0  0  0  0  0
   -2.4640   14.2990   -1.3180 C   0  0  0  0  0  0  0  0  0  0  0  0
   -5.2560   13.0450    0.5080 O   0  0  0  0  0  0  0  0  0  0  0  0
   -8.1380   14.4730    1.9680 C   0  0  0  0  0  0  0  0  0  0  0  0
   -3.3980   14.0830    1.2610 N   0  0  0  0  0  0  0  0  0  0  0  0
   -1.6420   14.5420   -0.3410 C   0  0  0  0  0  0  0  0  0  0  0  0
   -2.1290   14.4290    1.0160 C   0  0  0  0  0  0  0  0  0  0  0  0
   -0.3470   14.9030   -0.3120 N   0  0  0  0  0  0  0  0  0  0  0  0
   -1.1800   14.6870    1.8280 N   0  0  0  0  0  0  0  0  0  0  0  0
   -0.1300   14.9940    0.9660 C   0  0  0  0  0  0  0  0  0  0  0  0
  1  2  1  0
  2  3  2  3
  2  4  1  0
  4  5  2  0
  4  6  1  0
  3  7  1  0
  5  8  1  0
  5  9  1  0
  6 10  2  0
  7 11  1  0
  7 12  1  0
 11 13  2  0
  9 14  2  0
 10 14  1  0
 11 15  1  0
 12 16  2  0
 15 17  1  0
 16 17  1  0
 16 18  1  0
 17 19  2  0
 18 20  2  0
 19 20  1  0
M  END
