mac-x0124-mac-x0361
     RDKit          3D

 20 22  0  0  0  0  0  0  0  0999 V2000
   -0.5400   15.0070   -3.5390 C   0  0  0  0  0  0  0  0  0  0  0  0
   -1.3580   14.9430   -2.3480 N   0  0  0  0  0  0  0  0  0  0  0  0
   -2.7280   14.8810   -2.1740 C   0  0  0  0  0  0  0  0  0  0  0  0
   -0.9050   14.9590   -0.9940 C   0  0  0  0  0  0  0  0  0  0  0  0
   -3.0270   14.8290   -0.8990 C   0  0  0  0  0  0  0  0  0  0  0  0
   -1.9980   14.8710   -0.1600 C   0  0  0  0  0  0  0  0  0  0  0  0
    0.3000   15.0560   -0.4920 N   0  0  0  0  0  0  0  0  0  0  0  0
   -4.0340   14.8370   -2.4560 C   0  0  0  0  0  0  0  0  0  0  0  0
   -1.9690   14.8470    1.1760 C   0  0  0  0  0  0  0  0  0  0  0  0
    0.1950   15.0620    0.8680 C   0  0  0  0  0  0  0  0  0  0  0  0
   -4.2040   14.8500   -1.0910 C   0  0  0  0  0  0  0  0  0  0  0  0
   -5.0820   14.7960   -3.3290 C   0  0  0  0  0  0  0  0  0  0  0  0
   -3.1030   14.7520    1.9570 N   0  0  0  0  0  0  0  0  0  0  0  0
   -0.8290   14.9360    1.7110 N   0  0  0  0  0  0  0  0  0  0  0  0
   -5.3490   14.8250   -0.4660 C   0  0  0  0  0  0  0  0  0  0  0  0
   -6.3590   14.7710   -2.6600 C   0  0  0  0  0  0  0  0  0  0  0  0
   -6.4500   14.7850   -1.2160 C   0  0  0  0  0  0  0  0  0  0  0  0
   -7.6660   14.7570   -0.3910 C   0  0  0  0  0  0  0  0  0  0  0  0
   -7.4530   14.7030    0.9720 N   0  0  0  0  0  0  0  0  0  0  0  0
   -8.7860   14.7680   -0.8440 O   0  0  0  0  0  0  0  0  0  0  0  0
  1  2  1  0
  2  3  1  0
  2  4  1  0
  3  5  2  0
  4  6  2  0
  5  6  1  0
  4  7  1  0
  3  8  1  0
  6  9  1  0
  7 10  2  0
  8 11  2  0
  8 12  1  0
  9 13  1  0
  9 14  2  0
 10 14  1  0
 11 15  1  0
 12 16  2  0
 15 17  2  0
 16 17  1  0
 17 18  1  0
 18 19  1  0
 18 20  2  0
M  END
