mac-x0301-mac-x0587
     RDKit          3D

 18 19  0  0  0  0  0  0  0  0999 V2000
    0.1890   14.7180   -3.0820 O   0  0  0  0  0  0  0  0  0  0  0  0
   -1.2170   14.4420   -3.2090 C   0  0  2  0  0  0  0  0  0  0  0  0
   -1.3310   13.0760   -3.5200 O   0  0  0  0  0  0  0  0  0  0  0  0
   -1.6610   15.4410   -4.2840 C   0  0  0  0  0  0  0  0  0  0  0  0
   -1.9090   14.7370   -1.8860 C   0  0  0  0  0  0  0  0  0  0  0  0
   -0.2260   12.4550   -4.1630 C   0  0  0  0  0  0  0  0  0  0  0  0
   -2.8130   15.5520   -4.7000 O   0  0  0  0  0  0  0  0  0  0  0  0
   -1.3500   14.5940   -0.6120 C   0  0  0  0  0  0  0  0  0  0  0  0
   -3.2430   15.2070   -1.9170 C   0  0  0  0  0  0  0  0  0  0  0  0
    0.6450   11.6850   -3.1900 C   0  0  0  0  0  0  0  0  0  0  0  0
   -2.0600   14.9010    0.5420 C   0  0  0  0  0  0  0  0  0  0  0  0
   -3.9540   15.5110   -0.7440 C   0  0  0  0  0  0  0  0  0  0  0  0
   -0.0960   14.1640   -0.3140 O   0  0  0  0  0  0  0  0  0  0  0  0
    0.5030   10.5130   -2.8660 O   0  0  0  0  0  0  0  0  0  0  0  0
    1.6510   12.4060   -2.6580 O   0  0  0  0  0  0  0  0  0  0  0  0
   -3.3600   15.3590    0.5090 C   0  0  0  0  0  0  0  0  0  0  0  0
   -1.3350   14.7050    1.6800 O   0  0  0  0  0  0  0  0  0  0  0  0
   -0.0540   14.4200    1.1070 C   0  0  0  0  0  0  0  0  0  0  0  0
  2  1  1  1
  2  3  1  0
  2  4  1  0
  2  5  1  0
  3  6  1  0
  4  7  2  0
  5  8  2  0
  5  9  1  0
  6 10  1  0
  8 11  1  0
  9 12  2  0
  8 13  1  0
 10 14  2  0
 10 15  1  0
 11 16  2  0
 12 16  1  0
 11 17  1  0
 13 18  1  0
 17 18  1  0
M  END
