mac-x0360-mac-x0496
     RDKit          3D

 30 32  0  0  0  0  0  0  0  0999 V2000
   -7.4680   11.7830    1.2570 Cl  0  0  0  0  0  0  0  0  0  0  0  0
   -6.4980   11.6820   -0.1600 C   0  0  0  0  0  0  0  0  0  0  0  0
   -6.3510   10.4480   -0.7680 C   0  0  0  0  0  0  0  0  0  0  0  0
   -5.8680   12.8060   -0.7000 C   0  0  0  0  0  0  0  0  0  0  0  0
   -5.0830   12.6670   -1.8670 C   0  0  0  0  0  0  0  0  0  0  0  0
   -5.5690   10.3310   -1.9060 C   0  0  0  0  0  0  0  0  0  0  0  0
   -5.3790    8.8000   -2.6570 Cl  0  0  0  0  0  0  0  0  0  0  0  0
   -4.2430   14.0390   -2.6730 S   0  0  0  0  0  0  0  0  0  0  0  0
   -4.9340   11.4240   -2.4600 C   0  0  0  0  0  0  0  0  0  0  0  0
   -2.6830   14.3200   -1.8870 N   0  0  1  0  0  0  0  0  0  0  0  0
   -5.0410   15.2450   -2.4930 O   0  0  0  0  0  0  0  0  0  0  0  0
   -3.8810   13.5840   -3.9740 O   0  0  0  0  0  0  0  0  0  0  0  0
   -1.8110   13.2710   -1.8970 O   0  0  0  0  0  0  0  0  0  0  0  0
   -2.0060   15.3420   -2.5910 O   0  0  0  0  0  0  0  0  0  0  0  0
   -3.1900   14.6390   -0.5440 C   0  0  0  0  0  0  0  0  0  0  0  0
   -2.4220   14.9310    0.5670 C   0  0  0  0  0  0  0  0  0  0  0  0
   -4.5830   14.6150   -0.4380 C   0  0  0  0  0  0  0  0  0  0  0  0
   -3.0770   15.1940    1.7540 C   0  0  0  0  0  0  0  0  0  0  0  0
   -5.2300   14.8680    0.7370 C   0  0  0  0  0  0  0  0  0  0  0  0
   -6.7130   14.8120    0.8410 C   0  0  0  0  0  0  0  0  0  0  0  0
   -4.4640   15.1710    1.8450 C   0  0  0  0  0  0  0  0  0  0  0  0
   -7.2220   14.4820    2.0660 N   0  0  0  0  0  0  0  0  0  0  0  0
   -7.4260   15.0490   -0.1360 O   0  0  0  0  0  0  0  0  0  0  0  0
   -8.6290   14.1470    2.1650 C   0  0  0  0  0  0  0  0  0  0  0  0
   -9.3630   15.2790    2.7730 C   0  0  0  0  0  0  0  0  0  0  0  0
  -10.5880   15.5960    2.2520 O   0  0  0  0  0  0  0  0  0  0  0  0
   -9.0060   16.0520    3.7740 N   0  0  0  0  0  0  0  0  0  0  0  0
  -10.0720   16.8950    3.8860 C   0  0  0  0  0  0  0  0  0  0  0  0
  -11.0590   16.6710    3.0070 N   0  0  0  0  0  0  0  0  0  0  0  0
  -10.1260   17.9620    4.9030 C   0  0  0  0  0  0  0  0  0  0  0  0
  1  2  1  0
  2  3  2  0
  2  4  1  0
  4  5  2  0
  3  6  1  0
  6  7  1  0
  8  5  1  0
  5  9  1  0
  6  9  2  0
  8 10  1  0
  8 11  2  0
  8 12  2  0
 10 13  1  1
 10 14  1  0
 10 15  1  0
 15 16  2  0
 15 17  1  0
 16 18  1  0
 17 19  2  0
 19 20  1  0
 18 21  2  0
 19 21  1  0
 20 22  1  0
 20 23  2  0
 22 24  1  0
 24 25  1  0
 25 26  1  0
 25 27  2  0
 27 28  1  0
 26 29  1  0
 28 29  2  0
 28 30  1  0
M  CHG  2  10   1  13  -1
M  END
