mac-x0572-diamond-x0855_0_A
     RDKit          3D

 26 28  0  0  0  0  0  0  0  0999 V2000
   -7.9560   14.5040    3.0780 C   0  0  0  0  0  0  0  0  0  0  0  0
   -7.1470   14.6410    1.8120 C   0  0  0  0  0  0  0  0  0  0  0  0
   -5.8000   14.7990    2.0310 N   0  0  0  0  0  0  0  0  0  0  0  0
   -7.7080   14.6160    0.5930 C   0  0  0  0  0  0  0  0  0  0  0  0
   -9.0630   14.4580    0.3720 O   0  0  0  0  0  0  0  0  0  0  0  0
   -6.8140   14.7760   -0.5900 C   0  0  0  0  0  0  0  0  0  0  0  0
   -5.0060   15.1570    1.0710 C   0  0  0  0  0  0  0  0  0  0  0  0
   -7.2210   14.3800   -1.6780 O   0  0  0  0  0  0  0  0  0  0  0  0
   -5.4660   15.4380   -0.3450 C   0  0  1  0  0  0  0  0  0  0  0  0
   -3.5740   15.3190    1.3830 C   0  0  0  0  0  0  0  0  0  0  0  0
   -2.6900   15.3320    0.3820 C   0  0  0  0  0  0  0  0  0  0  0  0
   -4.3760   15.2110   -1.3600 C   0  0  0  0  0  0  0  0  0  0  0  0
   -3.0640   15.1710   -1.0160 C   0  0  0  0  0  0  0  0  0  0  0  0
   -1.9010   14.9600   -1.9760 C   0  0  0  0  0  0  0  0  0  0  0  0
   -0.7900   13.9480   -1.5890 C   0  0  0  0  0  0  0  0  0  0  0  0
    0.6000   14.2880   -2.1500 C   0  0  0  0  0  0  0  0  0  0  0  0
    1.3880   13.0970   -2.3580 O   0  0  0  0  0  0  0  0  0  0  0  0
    0.8430   12.1200   -3.1380 C   0  0  0  0  0  0  0  0  0  0  0  0
    0.5850   10.9920   -2.7270 O   0  0  0  0  0  0  0  0  0  0  0  0
    0.5880   12.5590   -4.5540 C   0  0  0  0  0  0  0  0  0  0  0  0
   -0.4430   11.7120   -5.1120 N   0  0  0  0  0  0  0  0  0  0  0  0
   -0.3090   10.7820   -6.1000 C   0  0  0  0  0  0  0  0  0  0  0  0
   -1.7010   11.8070   -4.6300 N   0  0  0  0  0  0  0  0  0  0  0  0
   -1.5540   10.2370   -6.2510 C   0  0  0  0  0  0  0  0  0  0  0  0
   -2.3760   10.8970   -5.3340 C   0  0  0  0  0  0  0  0  0  0  0  0
   -2.0870    8.8910   -7.4230 Br  0  0  0  0  0  0  0  0  0  0  0  0
  1  2  1  0
  2  3  1  0
  2  4  2  0
  4  5  1  0
  4  6  1  0
  3  7  2  0
  6  8  2  0
  6  9  1  0
  7  9  1  0
  7 10  1  0
 10 11  2  0
  9 12  1  6
 11 13  1  0
 12 13  2  0
 13 14  1  0
 14 15  1  0
 15 16  1  0
 16 17  1  0
 17 18  1  0
 18 19  2  0
 18 20  1  0
 20 21  1  0
 21 22  1  0
 21 23  1  0
 22 24  2  0
 23 25  2  0
 24 25  1  0
 24 26  1  0
M  END
