mac-x0190-mac-x0576
     RDKit          3D

 19 21  0  0  0  0  0  0  0  0999 V2000
   -9.1470   15.0630    2.4790 O   0  0  0  0  0  0  0  0  0  0  0  0
   -8.8890   14.0800    1.4810 C   0  0  0  0  0  0  0  0  0  0  0  0
   -7.5890   14.4250    0.8590 C   0  0  0  0  0  0  0  0  0  0  0  0
   -7.3920   14.2990   -0.4980 N   0  0  0  0  0  0  0  0  0  0  0  0
   -6.4990   14.8690    1.4590 N   0  0  0  0  0  0  0  0  0  0  0  0
   -6.1170   14.6870   -0.7440 C   0  0  0  0  0  0  0  0  0  0  0  0
   -5.5750   15.0440    0.4520 C   0  0  0  0  0  0  0  0  0  0  0  0
   -5.5010   14.6960   -1.9920 C   0  0  0  0  0  0  0  0  0  0  0  0
   -4.1930   15.5200    0.4690 C   0  0  0  0  0  0  0  0  0  0  0  0
   -3.8110   16.3760    1.2260 O   0  0  0  0  0  0  0  0  0  0  0  0
   -4.1610   14.7040   -1.9210 C   0  0  0  0  0  0  0  0  0  0  0  0
   -3.3650   14.7500   -0.6010 C   0  0  1  0  0  0  0  0  0  0  0  0
   -1.9030   14.9890   -1.0370 C   0  0  0  0  0  0  0  0  0  0  0  0
   -3.1760   13.5260    0.2410 C   0  0  0  0  0  0  0  0  0  0  0  0
   -1.5910   15.1390   -2.2210 O   0  0  0  0  0  0  0  0  0  0  0  0
   -0.9080   14.9650   -0.0940 N   0  0  0  0  0  0  0  0  0  0  0  0
   -2.2440   13.9210    1.3340 N   0  0  0  0  0  0  0  0  0  0  0  0
   -0.9200   13.9190    0.8120 C   0  0  2  0  0  0  0  0  0  0  0  0
   -0.0300   14.2150    1.8740 N   0  0  0  0  0  0  0  0  0  0  0  0
  1  2  1  0
  2  3  1  0
  3  4  1  0
  3  5  2  0
  4  6  1  0
  5  7  1  0
  6  7  2  0
  6  8  1  0
  7  9  1  0
  9 10  2  0
  8 11  2  0
 12  9  1  0
 12 11  1  6
 12 13  1  0
 12 14  1  0
 13 15  2  0
 13 16  1  0
 14 17  1  0
 16 18  1  0
 17 18  1  0
 18 19  1  1
M  END
