mac-x0178-mac-x0255
     RDKit          3D

 18 19  0  0  0  0  0  0  0  0999 V2000
   -1.9520   18.2720   -6.0460 N   0  0  0  0  0  0  0  0  0  0  0  0
   -2.2340   16.8530   -5.1970 S   0  0  0  0  0  0  0  0  0  0  0  0
   -3.2050   16.2070   -6.0530 O   0  0  0  0  0  0  0  0  0  0  0  0
   -2.5230   17.2550   -3.8740 O   0  0  0  0  0  0  0  0  0  0  0  0
   -0.6140   15.9640   -5.2680 C   0  0  1  0  0  0  0  0  0  0  0  0
    0.4180   16.0660   -4.1500 C   0  0  2  0  0  0  0  0  0  0  0  0
   -1.2100   14.5500   -5.4190 C   0  0  0  0  0  0  0  0  0  0  0  0
   -0.3740   17.2100   -6.1270 C   0  0  0  0  0  0  0  0  0  0  0  0
    0.7980   14.8920   -3.3690 C   0  0  0  0  0  0  0  0  0  0  0  0
   -0.8020   13.5330   -4.6110 C   0  0  0  0  0  0  0  0  0  0  0  0
    0.1210   17.2260   -3.3880 C   0  0  0  0  0  0  0  0  0  0  0  0
   -0.1580   18.3200   -5.4870 C   0  0  0  0  0  0  0  0  0  0  0  0
    0.2370   13.7140   -3.5710 C   0  0  0  0  0  0  0  0  0  0  0  0
   -0.1510   18.2750   -4.0680 C   0  0  0  0  0  0  0  0  0  0  0  0
    0.7570   12.5880   -2.7230 C   0  0  0  0  0  0  0  0  0  0  0  0
    0.4870   12.8140   -1.3380 O   0  0  0  0  0  0  0  0  0  0  0  0
    0.2390   11.3250   -3.0840 O   0  0  0  0  0  0  0  0  0  0  0  0
    2.2620   12.6490   -2.9330 C   0  0  0  0  0  0  0  0  0  0  0  0
  2  1  1  0
  2  3  2  0
  2  4  2  0
  5  2  1  1
  5  6  1  0
  5  7  1  0
  5  8  1  0
  6  9  1  1
  7 10  2  0
  6 11  1  0
  8 12  2  0
  9 13  2  0
 10 13  1  0
 11 14  2  0
 12 14  1  0
 13 15  1  0
 15 16  1  0
 15 17  1  0
 15 18  1  0
M  END
