mac-x0546-mac-x0436
     RDKit          3D

 27 30  0  0  0  0  0  0  0  0999 V2000
   -4.4690   15.3920   -6.1570 C   0  0  0  0  0  0  0  0  0  0  0  0
   -3.5770   16.5050   -6.2110 O   0  0  0  0  0  0  0  0  0  0  0  0
   -2.4320   16.3900   -5.4950 C   0  0  0  0  0  0  0  0  0  0  0  0
   -1.8900   15.2340   -5.0830 C   0  0  0  0  0  0  0  0  0  0  0  0
   -1.8070   17.6730   -5.1920 C   0  0  0  0  0  0  0  0  0  0  0  0
   -0.6520   15.2490   -4.2740 C   0  0  2  0  0  0  0  0  0  0  0  0
   -0.5600   17.7850   -4.7260 C   0  0  0  0  0  0  0  0  0  0  0  0
    0.1300   16.5120   -4.5580 C   0  0  0  0  0  0  0  0  0  0  0  0
    0.5100   14.3100   -4.4050 C   0  0  0  0  0  0  0  0  0  0  0  0
    0.5010   12.7980   -4.3860 C   0  0  2  0  0  0  0  0  0  0  0  0
    1.3890   16.3780   -4.6290 N   0  0  0  0  0  0  0  0  0  0  0  0
    1.6020   15.0490   -4.5360 C   0  0  0  0  0  0  0  0  0  0  0  0
    0.4460   12.2350   -2.9540 C   0  0  0  0  0  0  0  0  0  0  0  0
    1.9190   12.5890   -4.9330 C   0  0  0  0  0  0  0  0  0  0  0  0
   -0.5330   12.1110   -5.3890 C   0  0  2  0  0  0  0  0  0  0  0  0
    0.6880   12.8520   -1.9270 O   0  0  0  0  0  0  0  0  0  0  0  0
    0.1160   10.9300   -2.8470 O   0  0  0  0  0  0  0  0  0  0  0  0
   -1.8220   11.5500   -4.6710 C   0  0  0  0  0  0  0  0  0  0  0  0
    0.1320   11.1130   -6.3050 N   0  0  0  0  0  0  0  0  0  0  0  0
   -2.2730   12.0180   -3.6310 O   0  0  0  0  0  0  0  0  0  0  0  0
   -2.4910   10.4800   -5.2380 N   0  0  0  0  0  0  0  0  0  0  0  0
   -0.8210   10.2520   -7.0050 C   0  0  2  0  0  0  0  0  0  0  0  0
   -1.7010    9.5230   -5.9630 C   0  0  2  0  0  0  0  0  0  0  0  0
   -0.1550    9.2660   -7.9250 C   0  0  0  0  0  0  0  0  0  0  0  0
   -0.7750    8.1090   -8.2200 C   0  0  0  0  0  0  0  0  0  0  0  0
   -2.5490    8.4500   -6.5870 C   0  0  0  0  0  0  0  0  0  0  0  0
   -2.0780    7.7940   -7.6640 C   0  0  0  0  0  0  0  0  0  0  0  0
  1  2  1  0
  2  3  1  0
  3  4  2  0
  3  5  1  0
  6  4  1  6
  5  7  2  0
  6  8  1  0
  7  8  1  0
  6  9  1  0
  9 10  1  0
  8 11  2  0
  9 12  2  0
 11 12  1  0
 10 13  1  0
 10 14  1  6
 10 15  1  0
 13 16  2  0
 13 17  1  0
 15 18  1  0
 15 19  1  1
 18 20  2  0
 18 21  1  0
 19 22  1  0
 21 23  1  0
 22 23  1  0
 22 24  1  1
 24 25  2  0
 23 26  1  6
 25 27  1  0
 26 27  2  0
M  END
