mac-x0348-mac-x1493
     RDKit          3D

 29 32  0  0  0  0  0  0  0  0999 V2000
    0.7940   18.5820   -5.8940 C   0  0  0  0  0  0  0  0  0  0  0  0
    0.1470   17.4190   -5.3610 N   0  0  0  0  0  0  0  0  0  0  0  0
    0.7280   16.5310   -4.4960 C   0  0  0  0  0  0  0  0  0  0  0  0
   -1.1400   17.0320   -5.6420 C   0  0  0  0  0  0  0  0  0  0  0  0
   -0.1930   15.5440   -4.2110 C   0  0  0  0  0  0  0  0  0  0  0  0
   -1.3720   15.8550   -4.9500 C   0  0  0  0  0  0  0  0  0  0  0  0
   -2.1210   17.6090   -6.4470 C   0  0  0  0  0  0  0  0  0  0  0  0
   -0.0780   14.3460   -3.3010 C   0  0  1  0  0  0  0  0  0  0  0  0
   -2.6240   15.2160   -5.0740 C   0  0  0  0  0  0  0  0  0  0  0  0
   -3.3510   16.9520   -6.5540 C   0  0  0  0  0  0  0  0  0  0  0  0
    0.9390   13.2630   -3.6370 C   0  0  0  0  0  0  0  0  0  0  0  0
   -0.0110   14.8050   -1.8320 C   0  0  0  0  0  0  0  0  0  0  0  0
   -3.6020   15.7730   -5.8810 C   0  0  0  0  0  0  0  0  0  0  0  0
    0.7700   12.2190   -2.5700 C   0  0  0  0  0  0  0  0  0  0  0  0
   -1.3310   14.7520   -1.2590 O   0  0  0  0  0  0  0  0  0  0  0  0
    0.7460   12.4600   -1.3730 O   0  0  0  0  0  0  0  0  0  0  0  0
    0.6130   10.9650   -3.0020 O   0  0  0  0  0  0  0  0  0  0  0  0
   -2.3530   14.9670   -2.1300 C   0  0  0  0  0  0  0  0  0  0  0  0
   -2.2660   15.2040   -3.3040 O   0  0  0  0  0  0  0  0  0  0  0  0
   -3.6370   14.8890   -1.4480 C   0  0  0  0  0  0  0  0  0  0  0  0
   -3.7500   14.9440   -0.0740 C   0  0  0  0  0  0  0  0  0  0  0  0
   -4.7900   14.7510   -2.2030 C   0  0  0  0  0  0  0  0  0  0  0  0
   -5.0090   14.8500    0.5040 C   0  0  0  0  0  0  0  0  0  0  0  0
   -6.0320   14.6580   -1.6710 N   0  0  0  0  0  0  0  0  0  0  0  0
   -6.1360   14.7040   -0.3330 C   0  0  0  0  0  0  0  0  0  0  0  0
   -5.1550   14.8950    1.8850 C   0  0  0  0  0  0  0  0  0  0  0  0
   -7.3820   14.6040    0.2640 C   0  0  0  0  0  0  0  0  0  0  0  0
   -6.4150   14.7900    2.4620 C   0  0  0  0  0  0  0  0  0  0  0  0
   -7.5350   14.6440    1.6530 C   0  0  0  0  0  0  0  0  0  0  0  0
  1  2  1  0
  2  3  1  0
  2  4  1  0
  3  5  2  0
  4  6  2  0
  5  6  1  0
  4  7  1  0
  5  8  1  0
  6  9  1  0
  7 10  2  0
  8 11  1  6
  8 12  1  0
  9 13  2  0
 10 13  1  0
 11 14  1  0
 12 15  1  0
 14 16  2  0
 14 17  1  0
 15 18  1  0
 18 19  2  0
 18 20  1  0
 20 21  2  0
 20 22  1  0
 21 23  1  0
 22 24  2  0
 23 25  2  0
 24 25  1  0
 23 26  1  0
 25 27  1  0
 26 28  2  0
 27 29  2  0
 28 29  1  0
M  END
