mac-x0439-diamond-x0104_0_A
     RDKit          3D

 32 35  0  0  0  0  0  0  0  0999 V2000
   -3.1350   15.9200   -5.7320 Cl  0  0  0  0  0  0  0  0  0  0  0  0
   -1.6660   16.8160   -5.6050 C   0  0  0  0  0  0  0  0  0  0  0  0
   -0.7040   16.4980   -4.5350 C   0  0  1  0  0  0  0  0  0  0  0  0
   -1.3790   17.8230   -6.4400 C   0  0  0  0  0  0  0  0  0  0  0  0
   -0.4230   15.2210   -3.7930 C   0  0  0  0  0  0  0  0  0  0  0  0
    0.7050   16.8890   -4.8110 C   0  0  0  0  0  0  0  0  0  0  0  0
   -0.1220   18.5520   -6.3360 C   0  0  0  0  0  0  0  0  0  0  0  0
   -1.4670   14.2990   -3.2650 C   0  0  0  0  0  0  0  0  0  0  0  0
    0.9030   15.0920   -3.6630 C   0  0  0  0  0  0  0  0  0  0  0  0
    1.6080   16.0970   -4.2900 N   0  0  0  0  0  0  0  0  0  0  0  0
    0.9150   18.1360   -5.5760 C   0  0  0  0  0  0  0  0  0  0  0  0
    1.6190   13.9950   -2.9230 C   0  0  0  0  0  0  0  0  0  0  0  0
   -2.6730   15.0540   -2.7330 C   0  0  0  0  0  0  0  0  0  0  0  0
    2.9410   14.2750   -2.7640 O   0  0  0  0  0  0  0  0  0  0  0  0
    1.1070   12.9790   -2.4960 O   0  0  0  0  0  0  0  0  0  0  0  0
   -3.9410   14.2530   -2.8640 C   0  0  0  0  0  0  0  0  0  0  0  0
   -5.0540   15.0400   -2.4860 O   0  0  0  0  0  0  0  0  0  0  0  0
   -5.4090   14.9310   -1.1690 C   0  0  0  0  0  0  0  0  0  0  0  0
   -4.4820   14.9320   -0.1870 N   0  0  0  0  0  0  0  0  0  0  0  0
   -6.7650   14.8240   -0.9520 C   0  0  0  0  0  0  0  0  0  0  0  0
   -4.9500   14.8230    1.0820 C   0  0  0  0  0  0  0  0  0  0  0  0
   -7.2190   14.7110    0.3490 C   0  0  0  0  0  0  0  0  0  0  0  0
   -6.3060   14.7130    1.4010 C   0  0  0  0  0  0  0  0  0  0  0  0
   -6.8360   14.6080    2.6910 N   0  0  0  0  0  0  0  0  0  0  0  0
   -8.0140   15.0660    3.1770 C   0  0  0  0  0  0  0  0  0  0  0  0
   -8.1780   15.0840    4.5300 N   0  0  0  0  0  0  0  0  0  0  0  0
   -8.9560   15.4670    2.4910 O   0  0  0  0  0  0  0  0  0  0  0  0
   -9.3040   15.0780    5.3210 C   0  0  0  0  0  0  0  0  0  0  0  0
   -9.3130   15.1990    6.6940 C   0  0  0  0  0  0  0  0  0  0  0  0
  -10.8750   14.9140    4.6940 S   0  0  0  0  0  0  0  0  0  0  0  0
  -11.5850   15.0030    6.2450 C   0  0  0  0  0  0  0  0  0  0  0  0
  -10.6370   15.1560    7.2330 C   0  0  0  0  0  0  0  0  0  0  0  0
  1  2  1  0
  3  2  1  6
  2  4  2  0
  3  5  1  0
  3  6  1  0
  4  7  1  0
  5  8  1  0
  5  9  2  0
  6 10  2  0
  9 10  1  0
  6 11  1  0
  7 11  2  0
  9 12  1  0
  8 13  1  0
 12 14  1  0
 12 15  2  0
 13 16  1  0
 16 17  1  0
 17 18  1  0
 18 19  2  0
 18 20  1  0
 19 21  1  0
 20 22  2  0
 21 23  2  0
 22 23  1  0
 23 24  1  0
 24 25  1  0
 25 26  1  0
 25 27  2  0
 26 28  1  0
 28 29  2  0
 28 30  1  0
 30 31  1  0
 29 32  1  0
 31 32  2  0
M  END
