mac-x0139-mac-x0303
     RDKit          3D

 24 26  0  0  0  0  0  0  0  0999 V2000
   -2.3110   14.8640   -3.2060 C   0  0  0  0  0  0  0  0  0  0  0  0
   -1.1510   14.3080   -2.4830 N   0  0  0  0  0  0  0  0  0  0  0  0
    0.1390   14.7840   -3.0370 C   0  0  0  0  0  0  0  0  0  0  0  0
   -1.2300   14.6030   -1.0970 C   0  0  0  0  0  0  0  0  0  0  0  0
    0.7370   13.6860   -3.9080 C   0  0  0  0  0  0  0  0  0  0  0  0
   -2.4570   14.6910   -0.4920 C   0  0  0  0  0  0  0  0  0  0  0  0
   -0.1190   14.7980   -0.3820 N   0  0  0  0  0  0  0  0  0  0  0  0
    1.0200   12.4590   -3.0900 C   0  0  0  0  0  0  0  0  0  0  0  0
   -2.5200   15.0260    0.8340 C   0  0  0  0  0  0  0  0  0  0  0  0
   -0.2820   15.0820    0.9150 C   0  0  0  0  0  0  0  0  0  0  0  0
   -3.8110   14.4770   -1.0310 C   0  0  0  0  0  0  0  0  0  0  0  0
    1.6310   12.4620   -2.0450 O   0  0  0  0  0  0  0  0  0  0  0  0
    0.5280   11.3210   -3.6200 O   0  0  0  0  0  0  0  0  0  0  0  0
   -1.4470   15.2150    1.5770 N   0  0  0  0  0  0  0  0  0  0  0  0
   -3.8560   15.1640    1.2990 N   0  0  0  0  0  0  0  0  0  0  0  0
   -4.7230   14.7760    0.1890 C   0  0  1  0  0  0  0  0  0  0  0  0
   -5.5950   15.8000   -0.5460 C   0  0  0  0  0  0  0  0  0  0  0  0
   -5.6870   13.7430    0.6120 N   0  0  0  0  0  0  0  0  0  0  0  0
   -7.0820   14.2000    0.4140 C   0  0  2  0  0  0  0  0  0  0  0  0
   -7.0210   15.3820   -0.4750 N   0  0  0  0  0  0  0  0  0  0  0  0
   -8.2950   14.4190    1.9190 S   0  0  0  0  0  0  0  0  0  0  0  0
   -8.2030   12.8930    2.6420 N   0  0  0  0  0  0  0  0  0  0  0  0
   -7.7820   15.3370    2.9030 O   0  0  0  0  0  0  0  0  0  0  0  0
   -9.6490   14.5590    1.4270 O   0  0  0  0  0  0  0  0  0  0  0  0
  1  2  1  0
  2  3  1  0
  2  4  1  0
  3  5  1  0
  4  6  2  0
  4  7  1  0
  5  8  1  0
  6  9  1  0
  7 10  2  0
  6 11  1  0
  8 12  2  0
  8 13  1  0
  9 14  2  0
 10 14  1  0
  9 15  1  0
 16 11  1  6
 16 15  1  0
 16 17  1  0
 16 18  1  0
 18 19  1  0
 17 20  1  0
 19 20  1  0
 19 21  1  1
 21 22  1  0
 21 23  2  0
 21 24  2  0
M  END
