mac-x0357-diamond-x0849_0_A
     RDKit          3D

 24 26  0  0  0  0  0  0  0  0999 V2000
    2.1970   13.2580   -4.8870 C   0  0  0  0  0  0  0  0  0  0  0  0
    0.9600   12.4510   -5.1140 C   0  0  0  0  0  0  0  0  0  0  0  0
    0.8150   11.6050   -6.2050 C   0  0  0  0  0  0  0  0  0  0  0  0
   -0.1050   12.5190   -4.2420 C   0  0  0  0  0  0  0  0  0  0  0  0
    1.8270   11.5300   -7.0880 O   0  0  0  0  0  0  0  0  0  0  0  0
   -0.0660   13.4210   -3.1250 C   0  0  0  0  0  0  0  0  0  0  0  0
   -1.2690   11.7660   -4.4090 C   0  0  0  0  0  0  0  0  0  0  0  0
   -0.3340   10.8410   -6.4080 C   0  0  0  0  0  0  0  0  0  0  0  0
   -0.6510   14.5440   -3.2460 N   0  0  0  0  0  0  0  0  0  0  0  0
    0.6030   12.9990   -2.0320 O   0  0  0  0  0  0  0  0  0  0  0  0
   -1.3830   10.9180   -5.5000 C   0  0  0  0  0  0  0  0  0  0  0  0
   -0.7890   15.6250   -2.3080 C   0  0  0  0  0  0  0  0  0  0  0  0
   -2.2340   16.1010   -2.4630 C   0  0  0  0  0  0  0  0  0  0  0  0
   -3.2250   15.1010   -2.3140 O   0  0  0  0  0  0  0  0  0  0  0  0
   -3.3770   15.0840   -0.9590 C   0  0  0  0  0  0  0  0  0  0  0  0
   -2.2670   14.8040   -0.1590 C   0  0  0  0  0  0  0  0  0  0  0  0
   -4.6110   15.3500   -0.4030 C   0  0  0  0  0  0  0  0  0  0  0  0
   -2.4430   14.7980    1.2140 C   0  0  0  0  0  0  0  0  0  0  0  0
   -4.6650   15.3190    0.9680 C   0  0  0  0  0  0  0  0  0  0  0  0
   -0.9900   14.5290   -0.6660 C   0  0  0  0  0  0  0  0  0  0  0  0
   -3.6150   15.0530    1.7550 N   0  0  0  0  0  0  0  0  0  0  0  0
   -1.4390   14.5350    2.0260 N   0  0  0  0  0  0  0  0  0  0  0  0
    0.0560   14.2630    0.1880 C   0  0  0  0  0  0  0  0  0  0  0  0
   -0.2270   14.2780    1.5280 C   0  0  0  0  0  0  0  0  0  0  0  0
  1  2  1  0
  2  3  2  0
  2  4  1  0
  3  5  1  0
  4  6  1  0
  4  7  2  0
  3  8  1  0
  6  9  2  3
  6 10  1  0
  7 11  1  0
  8 11  2  0
  9 12  1  0
 12 13  1  0
 13 14  1  0
 14 15  1  0
 15 16  1  0
 15 17  2  0
 16 18  2  0
 17 19  1  0
 16 20  1  0
 18 21  1  0
 19 21  2  0
 18 22  1  0
 20 23  2  0
 22 24  2  0
 23 24  1  0
M  END
