mac-x0231-mac-x0206
     RDKit          3D

 26 28  0  0  0  0  0  0  0  0999 V2000
    0.9060   10.6080   -3.2030 O   0  0  0  0  0  0  0  0  0  0  0  0
    1.3420   11.8790   -3.1950 C   0  0  0  0  0  0  0  0  0  0  0  0
    1.4040   12.4770   -2.1360 O   0  0  0  0  0  0  0  0  0  0  0  0
    1.6870   12.4310   -4.5490 C   0  0  0  0  0  0  0  0  0  0  0  0
    1.2310   13.8640   -4.5570 C   0  0  0  0  0  0  0  0  0  0  0  0
   -0.2040   14.1330   -4.4720 C   0  0  0  0  0  0  0  0  0  0  0  0
    2.1090   14.8000   -4.5490 N   0  0  0  0  0  0  0  0  0  0  0  0
   -0.6110   15.4570   -4.4640 C   0  0  0  0  0  0  0  0  0  0  0  0
    1.6860   16.0890   -4.5000 N   0  0  0  0  0  0  0  0  0  0  0  0
   -1.1240   13.1000   -4.3670 C   0  0  0  0  0  0  0  0  0  0  0  0
    0.3920   16.5170   -4.5950 C   0  0  0  0  0  0  0  0  0  0  0  0
   -1.9570   15.7650   -4.3060 C   0  0  0  0  0  0  0  0  0  0  0  0
   -2.4610   13.4000   -4.2050 C   0  0  0  0  0  0  0  0  0  0  0  0
    0.0890   17.6900   -4.7740 O   0  0  0  0  0  0  0  0  0  0  0  0
   -2.8760   14.7310   -4.1520 C   0  0  0  0  0  0  0  0  0  0  0  0
   -4.3110   15.0140   -3.8860 C   0  0  0  0  0  0  0  0  0  0  0  0
   -5.1350   14.9640   -2.6600 N   0  0  0  0  0  0  0  0  0  0  0  0
   -4.7360   15.0300   -1.4020 C   0  0  0  0  0  0  0  0  0  0  0  0
   -3.4030   15.1720   -1.0910 N   0  0  0  0  0  0  0  0  0  0  0  0
   -5.7130   14.9310   -0.2880 C   0  0  0  0  0  0  0  0  0  0  0  0
   -7.0400   14.7620   -0.6630 C   0  0  0  0  0  0  0  0  0  0  0  0
   -5.3770   14.9940    1.0760 C   0  0  0  0  0  0  0  0  0  0  0  0
   -7.4150   14.6970   -1.9710 O   0  0  0  0  0  0  0  0  0  0  0  0
   -8.0500   14.6500    0.2800 C   0  0  0  0  0  0  0  0  0  0  0  0
   -6.4150   14.8830    2.0240 C   0  0  0  0  0  0  0  0  0  0  0  0
   -7.7350   14.7110    1.6300 C   0  0  0  0  0  0  0  0  0  0  0  0
  1  2  1  0
  2  3  2  0
  2  4  1  0
  4  5  1  0
  5  6  1  0
  5  7  2  0
  6  8  2  0
  7  9  1  0
  6 10  1  0
  8 11  1  0
  9 11  1  0
  8 12  1  0
 10 13  2  0
 11 14  2  0
 12 15  2  0
 13 15  1  0
 15 16  1  0
 16 17  1  0
 17 18  2  3
 18 19  1  0
 18 20  1  0
 20 21  2  0
 20 22  1  0
 21 23  1  0
 21 24  1  0
 22 25  2  0
 24 26  2  0
 25 26  1  0
M  END
