mac-x0588-mac-x0375
     RDKit          3D

 29 32  0  0  0  0  0  0  0  0999 V2000
   -4.5250   15.2050    0.8740 N   0  0  0  0  0  0  0  0  0  0  0  0
   -3.4050   15.4830    0.0020 C   0  0  1  0  0  0  0  0  0  0  0  0
   -2.1610   14.6500    0.3430 C   0  0  1  0  0  0  0  0  0  0  0  0
   -3.8690   15.1150   -1.3140 N   0  0  0  0  0  0  0  0  0  0  0  0
   -2.8780   15.5260   -2.3100 C   0  0  0  0  0  0  0  0  0  0  0  0
   -1.1790   14.6560   -0.8350 C   0  0  1  0  0  0  0  0  0  0  0  0
   -1.3020   15.1720    1.4310 N   0  0  0  0  0  0  0  0  0  0  0  0
   -1.5850   14.8280   -2.2100 N   0  0  0  0  0  0  0  0  0  0  0  0
   -0.1870   15.6080   -0.4740 N   0  0  0  0  0  0  0  0  0  0  0  0
    0.0260   15.0970    0.8360 C   0  0  0  0  0  0  0  0  0  0  0  0
   -0.4600   15.5080   -2.9420 C   0  0  1  0  0  0  0  0  0  0  0  0
    0.9290   14.7850   -2.9400 C   0  0  0  0  0  0  0  0  0  0  0  0
   -0.6810   16.0050   -4.3920 C   0  0  1  0  0  0  0  0  0  0  0  0
    1.2260   13.6340   -1.9940 C   0  0  0  0  0  0  0  0  0  0  0  0
   -1.5530   17.1500   -4.4870 O   0  0  0  0  0  0  0  0  0  0  0  0
    0.6120   16.3540   -5.1310 C   0  0  0  0  0  0  0  0  0  0  0  0
    1.7610   12.5060   -2.6720 O   0  0  0  0  0  0  0  0  0  0  0  0
    0.3920   17.7420   -5.6650 C   0  0  0  0  0  0  0  0  0  0  0  0
   -0.7110   18.2650   -4.7820 C   0  0  0  0  0  0  0  0  0  0  0  0
    0.9050   11.8010   -3.4590 C   0  0  0  0  0  0  0  0  0  0  0  0
    0.3570   10.7700   -3.1030 O   0  0  0  0  0  0  0  0  0  0  0  0
    0.7700   12.4760   -4.8290 C   0  0  0  0  0  0  0  0  0  0  0  0
    0.7590   11.5790   -5.9450 O   0  0  0  0  0  0  0  0  0  0  0  0
   -0.3900   10.8460   -6.0780 C   0  0  0  0  0  0  0  0  0  0  0  0
   -0.3770    9.5800   -6.6720 C   0  0  0  0  0  0  0  0  0  0  0  0
   -1.5840   11.3820   -5.6120 C   0  0  0  0  0  0  0  0  0  0  0  0
   -1.5570    8.8530   -6.7910 C   0  0  0  0  0  0  0  0  0  0  0  0
   -2.7650   10.6530   -5.7370 C   0  0  0  0  0  0  0  0  0  0  0  0
   -2.7530    9.3880   -6.3230 C   0  0  0  0  0  0  0  0  0  0  0  0
  2  1  1  1
  2  3  1  0
  2  4  1  0
  4  5  1  0
  3  6  1  0
  3  7  1  1
  5  8  1  0
  6  8  1  0
  6  9  1  1
  7 10  1  0
  9 10  1  0
  8 11  1  0
 11 12  1  6
 11 13  1  0
 12 14  1  0
 13 15  1  0
 13 16  1  1
 14 17  1  0
 16 18  1  0
 15 19  1  0
 18 19  1  0
 17 20  1  0
 20 21  2  0
 20 22  1  0
 22 23  1  0
 23 24  1  0
 24 25  2  0
 24 26  1  0
 25 27  1  0
 26 28  2  0
 27 29  2  0
 28 29  1  0
M  END
