mac-x0348-mac-x0228
     RDKit          3D

 28 31  0  0  0  0  0  0  0  0999 V2000
    1.0290   18.5560   -5.8080 C   0  0  0  0  0  0  0  0  0  0  0  0
    0.3680   17.4020   -5.2760 N   0  0  0  0  0  0  0  0  0  0  0  0
    0.9290   16.4780   -4.4430 C   0  0  0  0  0  0  0  0  0  0  0  0
   -0.9210   17.0750   -5.5340 C   0  0  0  0  0  0  0  0  0  0  0  0
   -0.0140   15.5270   -4.1610 C   0  0  0  0  0  0  0  0  0  0  0  0
   -1.1940   15.8900   -4.8600 C   0  0  0  0  0  0  0  0  0  0  0  0
   -1.8710   17.7100   -6.2970 C   0  0  0  0  0  0  0  0  0  0  0  0
    0.0980   14.3170   -3.2750 C   0  0  1  0  0  0  0  0  0  0  0  0
   -2.4720   15.3110   -4.9720 C   0  0  0  0  0  0  0  0  0  0  0  0
   -3.1010   17.1170   -6.3680 C   0  0  0  0  0  0  0  0  0  0  0  0
    1.1120   13.2380   -3.6090 C   0  0  0  0  0  0  0  0  0  0  0  0
    0.1050   14.7390   -1.7930 C   0  0  0  0  0  0  0  0  0  0  0  0
   -3.4280   15.9340   -5.7350 C   0  0  0  0  0  0  0  0  0  0  0  0
    0.7840   12.1520   -2.6330 C   0  0  0  0  0  0  0  0  0  0  0  0
   -1.2580   14.8180   -1.3510 O   0  0  0  0  0  0  0  0  0  0  0  0
    0.8960   12.2610   -1.4260 O   0  0  0  0  0  0  0  0  0  0  0  0
    0.3000   11.0270   -3.1740 O   0  0  0  0  0  0  0  0  0  0  0  0
   -2.1730   14.6100   -2.3330 C   0  0  0  0  0  0  0  0  0  0  0  0
   -1.9440   14.3180   -3.4860 O   0  0  0  0  0  0  0  0  0  0  0  0
   -3.5420   14.7640   -1.8290 C   0  0  0  0  0  0  0  0  0  0  0  0
   -3.8580   14.5140   -0.4930 C   0  0  0  0  0  0  0  0  0  0  0  0
   -4.5390   15.1630   -2.7360 C   0  0  0  0  0  0  0  0  0  0  0  0
   -5.1700   14.6680   -0.1080 C   0  0  0  0  0  0  0  0  0  0  0  0
   -5.8610   15.3160   -2.3190 C   0  0  0  0  0  0  0  0  0  0  0  0
   -6.1470   15.0620   -1.0010 C   0  0  0  0  0  0  0  0  0  0  0  0
   -5.7770   14.4590    1.2200 C   0  0  0  0  0  0  0  0  0  0  0  0
   -7.3930   15.1650   -0.4420 O   0  0  0  0  0  0  0  0  0  0  0  0
   -7.2510   14.4850    0.8270 C   0  0  0  0  0  0  0  0  0  0  0  0
  1  2  1  0
  2  3  1  0
  2  4  1  0
  3  5  2  0
  4  6  2  0
  5  6  1  0
  4  7  1  0
  5  8  1  0
  6  9  1  0
  7 10  2  0
  8 11  1  6
  8 12  1  0
  9 13  2  0
 10 13  1  0
 11 14  1  0
 12 15  1  0
 14 16  2  0
 14 17  1  0
 15 18  1  0
 18 19  2  0
 18 20  1  0
 20 21  2  0
 20 22  1  0
 21 23  1  0
 22 24  2  0
 23 25  2  0
 24 25  1  0
 23 26  1  0
 25 27  1  0
 26 28  1  0
 27 28  1  0
M  END
