mac-x0341-mac-x0226
     RDKit          3D

 28 31  0  0  0  0  0  0  0  0999 V2000
   -6.8100   14.7380    2.3700 N   0  0  0  0  0  0  0  0  0  0  0  0
   -6.0850   14.7860    1.2240 C   0  0  0  0  0  0  0  0  0  0  0  0
   -4.7970   14.8600    1.3060 N   0  0  0  0  0  0  0  0  0  0  0  0
   -6.7480   14.7630    0.0320 N   0  0  0  0  0  0  0  0  0  0  0  0
   -6.1120   15.0480   -1.1540 C   0  0  0  0  0  0  0  0  0  0  0  0
   -4.0460   14.8860    0.1280 C   0  0  0  0  0  0  0  0  0  0  0  0
   -6.7190   15.3180   -2.1760 O   0  0  0  0  0  0  0  0  0  0  0  0
   -4.6480   14.9810   -1.1180 C   0  0  0  0  0  0  0  0  0  0  0  0
   -2.6540   14.8060    0.2000 C   0  0  0  0  0  0  0  0  0  0  0  0
   -1.8780   14.8220   -0.9820 C   0  0  0  0  0  0  0  0  0  0  0  0
   -3.8990   15.0030   -2.2940 C   0  0  0  0  0  0  0  0  0  0  0  0
   -0.3700   14.7350   -0.9170 C   0  0  0  0  0  0  0  0  0  0  0  0
   -2.5130   14.9230   -2.2200 C   0  0  0  0  0  0  0  0  0  0  0  0
    0.0770   13.2850   -0.8770 C   0  0  0  0  0  0  0  0  0  0  0  0
    0.8160   12.9390   -2.0660 O   0  0  0  0  0  0  0  0  0  0  0  0
    0.5000   11.7480   -2.6560 C   0  0  0  0  0  0  0  0  0  0  0  0
    0.1580   10.7250   -2.0420 O   0  0  0  0  0  0  0  0  0  0  0  0
    0.6310   11.7910   -4.1020 C   0  0  0  0  0  0  0  0  0  0  0  0
    1.4350   12.6290   -4.9070 C   0  0  0  0  0  0  0  0  0  0  0  0
   -0.0180   10.9850   -5.0190 C   0  0  0  0  0  0  0  0  0  0  0  0
    1.3090   12.3660   -6.2090 N   0  0  0  0  0  0  0  0  0  0  0  0
    0.4090   11.3410   -6.2760 N   0  0  0  0  0  0  0  0  0  0  0  0
    0.0210   10.7580   -7.5190 C   0  0  0  0  0  0  0  0  0  0  0  0
   -1.1360    9.9820   -7.6030 C   0  0  0  0  0  0  0  0  0  0  0  0
    0.7790   10.9420   -8.6670 C   0  0  0  0  0  0  0  0  0  0  0  0
   -1.5060    9.4100   -8.8250 C   0  0  0  0  0  0  0  0  0  0  0  0
    0.4180   10.3790   -9.8830 C   0  0  0  0  0  0  0  0  0  0  0  0
   -0.7300    9.6090   -9.9640 C   0  0  0  0  0  0  0  0  0  0  0  0
  1  2  1  0
  2  3  2  0
  2  4  1  0
  4  5  1  0
  3  6  1  0
  5  7  2  0
  5  8  1  0
  6  8  2  0
  6  9  1  0
  9 10  2  0
  8 11  1  0
 10 12  1  0
 10 13  1  0
 11 13  2  0
 12 14  1  0
 14 15  1  0
 15 16  1  0
 16 17  2  0
 16 18  1  0
 18 19  1  0
 18 20  2  0
 19 21  2  0
 20 22  1  0
 21 22  1  0
 22 23  1  0
 23 24  2  0
 23 25  1  0
 24 26  1  0
 25 27  2  0
 26 28  2  0
 27 28  1  0
M  END
