mac-x0587-mac-x0345
     RDKit          3D

 25 26  0  0  0  0  0  0  0  0999 V2000
   -0.3980   16.3520   -4.5250 C   0  0  0  0  0  0  0  0  0  0  0  0
   -0.6800   14.9800   -3.9200 C   0  0  2  0  0  0  0  0  0  0  0  0
    0.0240   13.6390   -4.9810 S   0  0  0  0  0  0  0  0  0  0  0  0
   -2.1480   14.6130   -3.5210 C   0  0  0  0  0  0  0  0  0  0  0  0
   -0.5460   12.1390   -4.0960 C   0  0  0  0  0  0  0  0  0  0  0  0
   -3.0990   14.4330   -4.4120 N   0  0  0  0  0  0  0  0  0  0  0  0
   -2.4310   14.4280   -2.1650 N   0  0  0  0  0  0  0  0  0  0  0  0
    0.5070   11.5830   -3.1680 C   0  0  0  0  0  0  0  0  0  0  0  0
   -4.4950   13.9950   -4.1950 C   0  0  0  0  0  0  0  0  0  0  0  0
   -3.4760   13.5960   -1.5990 C   0  0  0  0  0  0  0  0  0  0  0  0
   -1.5200   14.6810   -1.0950 C   0  0  0  0  0  0  0  0  0  0  0  0
    0.6080   10.4140   -2.8430 O   0  0  0  0  0  0  0  0  0  0  0  0
    1.3520   12.5260   -2.6950 O   0  0  0  0  0  0  0  0  0  0  0  0
   -0.3460   15.0100   -1.1080 O   0  0  0  0  0  0  0  0  0  0  0  0
   -5.4430   14.9670   -3.6650 N   0  0  0  0  0  0  0  0  0  0  0  0
   -3.4500   13.8700   -0.1070 C   0  0  0  0  0  0  0  0  0  0  0  0
   -2.1870   14.4970    0.1120 N   0  0  0  0  0  0  0  0  0  0  0  0
   -5.4150   15.0810   -2.2850 C   0  0  0  0  0  0  0  0  0  0  0  0
   -4.2610   15.6180   -1.7850 C   0  0  0  0  0  0  0  0  0  0  0  0
   -6.4390   14.6820   -1.4850 N   0  0  0  0  0  0  0  0  0  0  0  0
   -6.2790   14.8050   -0.1320 C   0  0  0  0  0  0  0  0  0  0  0  0
   -4.1130   15.7310   -0.4370 C   0  0  0  0  0  0  0  0  0  0  0  0
   -7.4230   14.3510    0.7290 C   0  0  0  0  0  0  0  0  0  0  0  0
   -5.0950   15.3230    0.3920 C   0  0  0  0  0  0  0  0  0  0  0  0
   -4.6270   15.5460    2.1780 Br  0  0  0  0  0  0  0  0  0  0  0  0
  2  1  1  6
  2  3  1  0
  2  4  1  0
  3  5  1  0
  4  6  2  3
  4  7  1  0
  5  8  1  0
  6  9  1  0
  7 10  1  0
  7 11  1  0
  8 12  2  0
  8 13  1  0
 11 14  2  0
  9 15  1  0
 10 16  1  0
 11 17  1  0
 16 17  1  0
 15 18  1  0
 18 19  2  0
 18 20  1  0
 20 21  2  0
 19 22  1  0
 21 23  1  0
 21 24  1  0
 22 24  2  0
 24 25  1  0
M  END
