mac-x0357-mac-x0328
     RDKit          3D

 20 21  0  0  0  0  0  0  0  0999 V2000
    2.0190   13.3960   -4.4260 C   0  0  0  0  0  0  0  0  0  0  0  0
    0.8940   12.5050   -4.7750 C   0  0  0  0  0  0  0  0  0  0  0  0
    0.9180   11.8020   -5.9750 C   0  0  0  0  0  0  0  0  0  0  0  0
   -0.1800   12.3820   -3.9070 C   0  0  0  0  0  0  0  0  0  0  0  0
    1.9490   11.8970   -6.8630 O   0  0  0  0  0  0  0  0  0  0  0  0
   -0.3160   13.1060   -2.6660 C   0  0  0  0  0  0  0  0  0  0  0  0
   -1.1770   11.5270   -4.3120 C   0  0  0  0  0  0  0  0  0  0  0  0
   -0.1330   10.9490   -6.3300 C   0  0  0  0  0  0  0  0  0  0  0  0
   -1.0310   14.0400   -2.5570 N   0  0  0  0  0  0  0  0  0  0  0  0
    0.4570   12.6840   -1.4860 O   0  0  0  0  0  0  0  0  0  0  0  0
   -1.1770   10.8200   -5.4790 C   0  0  0  0  0  0  0  0  0  0  0  0
   -1.9020   15.0300   -2.7640 C   0  0  2  0  0  0  0  0  0  0  0  0
   -1.2760   16.2500   -2.4890 O   0  0  0  0  0  0  0  0  0  0  0  0
   -3.2230   15.0360   -2.0040 C   0  0  0  0  0  0  0  0  0  0  0  0
   -3.3350   14.9810   -0.6320 C   0  0  0  0  0  0  0  0  0  0  0  0
   -4.3850   15.1100   -2.7330 C   0  0  0  0  0  0  0  0  0  0  0  0
   -4.6050   15.0010   -0.0170 C   0  0  0  0  0  0  0  0  0  0  0  0
   -5.6400   15.1320   -2.1660 C   0  0  0  0  0  0  0  0  0  0  0  0
   -5.7410   15.0760   -0.8050 C   0  0  0  0  0  0  0  0  0  0  0  0
   -7.0140   15.0980   -0.2330 O   0  0  0  0  0  0  0  0  0  0  0  0
  1  2  1  0
  2  3  2  0
  2  4  1  0
  3  5  1  0
  4  6  1  0
  4  7  2  0
  3  8  1  0
  6  9  2  3
  6 10  1  0
  7 11  1  0
  8 11  2  0
  9 12  1  0
 12 13  1  1
 12 14  1  0
 14 15  2  0
 14 16  1  0
 15 17  1  0
 16 18  2  0
 17 19  2  0
 18 19  1  0
 19 20  1  0
M  END
