mac-x0527-diamond-x0967_0_A
     RDKit          3D

 20 22  0  0  0  0  0  0  0  0999 V2000
   -3.4970   15.5230   -3.7620 O   0  0  0  0  0  0  0  0  0  0  0  0
   -2.9770   15.0950   -2.7360 C   0  0  0  0  0  0  0  0  0  0  0  0
   -1.6840   14.6490   -2.6770 N   0  0  0  0  0  0  0  0  0  0  0  0
   -3.7890   15.0460   -1.4800 C   0  0  0  0  0  0  0  0  0  0  0  0
   -0.8530   14.6690   -3.8590 C   0  0  0  0  0  0  0  0  0  0  0  0
   -5.1330   15.0920   -1.5090 C   0  0  0  0  0  0  0  0  0  0  0  0
   -3.1340   14.9450   -0.2480 N   0  0  0  0  0  0  0  0  0  0  0  0
   -0.8520   13.3270   -4.5510 C   0  0  0  0  0  0  0  0  0  0  0  0
   -5.9080   15.0300   -0.3580 N   0  0  0  0  0  0  0  0  0  0  0  0
   -3.8690   14.8990    0.9230 C   0  0  0  0  0  0  0  0  0  0  0  0
   -1.8060   12.3450   -4.2380 C   0  0  0  0  0  0  0  0  0  0  0  0
    0.1170   13.0470   -5.5250 C   0  0  0  0  0  0  0  0  0  0  0  0
   -5.2240   14.9390    0.8780 C   0  0  0  0  0  0  0  0  0  0  0  0
   -7.2020   14.5840   -0.5130 N   0  0  0  0  0  0  0  0  0  0  0  0
   -1.7860   11.1080   -4.8890 C   0  0  0  0  0  0  0  0  0  0  0  0
    0.1350   11.8130   -6.1720 C   0  0  0  0  0  0  0  0  0  0  0  0
   -6.0450   14.8880    2.0530 C   0  0  0  0  0  0  0  0  0  0  0  0
   -7.8600   14.3950    0.5830 C   0  0  0  0  0  0  0  0  0  0  0  0
   -0.8150   10.8420   -5.8540 C   0  0  0  0  0  0  0  0  0  0  0  0
   -7.3500   14.6180    1.9510 C   0  0  0  0  0  0  0  0  0  0  0  0
  1  2  2  0
  2  3  1  0
  2  4  1  0
  3  5  1  0
  4  6  2  0
  4  7  1  0
  5  8  1  0
  6  9  1  0
  7 10  1  0
  8 11  2  0
  8 12  1  0
  9 13  1  0
 10 13  2  0
  9 14  1  0
 11 15  1  0
 12 16  2  0
 13 17  1  0
 14 18  2  0
 15 19  2  0
 16 19  1  0
 17 20  2  0
 18 20  1  0
M  END
