mac-x0496-mac-x0305
     RDKit          3D

 22 24  0  0  0  0  0  0  0  0999 V2000
   -9.9960   17.7720    4.7510 C   0  0  0  0  0  0  0  0  0  0  0  0
   -9.9160   16.7660    3.6740 C   0  0  0  0  0  0  0  0  0  0  0  0
  -10.8700   16.6080    2.7500 N   0  0  0  0  0  0  0  0  0  0  0  0
   -8.8530   15.9160    3.5500 N   0  0  0  0  0  0  0  0  0  0  0  0
  -10.3760   15.5730    1.9460 O   0  0  0  0  0  0  0  0  0  0  0  0
   -9.1710   15.2110    2.4880 C   0  0  0  0  0  0  0  0  0  0  0  0
   -8.4150   14.1080    1.8330 C   0  0  0  0  0  0  0  0  0  0  0  0
   -6.9870   14.4230    1.7510 N   0  0  0  0  0  0  0  0  0  0  0  0
   -6.4520   14.7170    0.5090 C   0  0  0  0  0  0  0  0  0  0  0  0
   -7.1860   14.9740   -0.4430 O   0  0  0  0  0  0  0  0  0  0  0  0
   -4.9590   14.7100    0.2940 C   0  0  0  0  0  0  0  0  0  0  0  0
   -3.9720   14.6560    1.3230 C   0  0  0  0  0  0  0  0  0  0  0  0
   -4.5480   14.7590   -1.0400 C   0  0  0  0  0  0  0  0  0  0  0  0
   -2.5890   14.6290    0.9980 C   0  0  0  0  0  0  0  0  0  0  0  0
   -3.1920   14.7330   -1.2930 C   0  0  0  0  0  0  0  0  0  0  0  0
   -2.4520   14.7710   -2.5190 C   0  0  0  0  0  0  0  0  0  0  0  0
   -1.6180   14.5690    1.9580 O   0  0  0  0  0  0  0  0  0  0  0  0
   -2.2110   14.6570   -0.3200 C   0  0  0  0  0  0  0  0  0  0  0  0
   -1.1510   14.7010   -2.4730 N   0  0  0  0  0  0  0  0  0  0  0  0
   -3.1410   14.8820   -3.6520 O   0  0  0  0  0  0  0  0  0  0  0  0
   -0.8520   14.6220   -1.0070 C   0  0  2  0  0  0  0  0  0  0  0  0
   -0.0380   13.5100   -0.6040 O   0  0  0  0  0  0  0  0  0  0  0  0
  1  2  1  0
  2  3  2  0
  2  4  1  0
  3  5  1  0
  4  6  2  0
  5  6  1  0
  6  7  1  0
  7  8  1  0
  8  9  1  0
  9 10  2  0
  9 11  1  0
 11 12  2  0
 11 13  1  0
 12 14  1  0
 13 15  2  0
 15 16  1  0
 14 17  1  0
 14 18  2  0
 15 18  1  0
 16 19  2  0
 16 20  1  0
 18 21  1  0
 19 21  1  0
 21 22  1  6
M  END
