mac-x0415-mac-x0546
     RDKit          3D

 15 16  0  0  0  0  0  0  0  0999 V2000
    0.0370   10.9850   -2.9710 O   0  0  0  0  0  0  0  0  0  0  0  0
    0.7310   12.1360   -3.0680 C   0  0  0  0  0  0  0  0  0  0  0  0
    1.1890   12.6990   -2.0860 O   0  0  0  0  0  0  0  0  0  0  0  0
    0.8840   12.6750   -4.4800 C   0  0  0  0  0  0  0  0  0  0  0  0
    0.7130   14.1360   -4.4480 C   0  0  0  0  0  0  0  0  0  0  0  0
    1.8000   15.0960   -4.4000 C   0  0  0  0  0  0  0  0  0  0  0  0
   -0.3270   14.9570   -4.4650 C   0  0  0  0  0  0  0  0  0  0  0  0
    1.5060   16.3530   -4.3970 N   0  0  0  0  0  0  0  0  0  0  0  0
    0.0770   16.3830   -4.3580 C   0  0  1  0  0  0  0  0  0  0  0  0
   -1.7280   14.7060   -4.5380 C   0  0  0  0  0  0  0  0  0  0  0  0
   -0.6750   17.2780   -5.2760 C   0  0  0  0  0  0  0  0  0  0  0  0
   -2.5020   15.6580   -5.0870 C   0  0  0  0  0  0  0  0  0  0  0  0
   -3.8580   15.4330   -5.1610 O   0  0  0  0  0  0  0  0  0  0  0  0
   -1.9290   16.9140   -5.6090 C   0  0  0  0  0  0  0  0  0  0  0  0
   -4.3220   16.1910   -6.2820 O   0  0  0  0  0  0  0  0  0  0  0  0
  1  2  1  0
  2  3  2  0
  2  4  1  0
  4  5  1  0
  5  6  1  0
  5  7  2  0
  6  8  2  0
  7  9  1  0
  8  9  1  0
  7 10  1  0
  9 11  1  6
 10 12  2  0
 12 13  1  0
 11 14  2  0
 12 14  1  0
 13 15  1  0
M  END
