mac-x0142-mac-x0379
     RDKit          3D

 21 24  0  0  0  0  0  0  0  0999 V2000
   -5.4710   15.5850   -0.9700 C   0  0  0  0  0  0  0  0  0  0  0  0
   -4.0350   15.2640   -0.7360 C   0  0  0  0  0  0  0  0  0  0  0  0
   -3.6450   15.1380    0.6180 N   0  0  0  0  0  0  0  0  0  0  0  0
   -2.9960   15.0740   -1.6180 C   0  0  0  0  0  0  0  0  0  0  0  0
   -2.7980   15.1070   -3.0940 C   0  0  0  0  0  0  0  0  0  0  0  0
   -2.3700   14.8760    0.5590 C   0  0  0  0  0  0  0  0  0  0  0  0
   -1.8980   14.8140   -0.8210 C   0  0  0  0  0  0  0  0  0  0  0  0
   -3.5410   14.6950   -3.9530 O   0  0  0  0  0  0  0  0  0  0  0  0
   -1.6040   15.6350   -3.4560 O   0  0  0  0  0  0  0  0  0  0  0  0
   -1.5150   14.6510    1.5950 N   0  0  0  0  0  0  0  0  0  0  0  0
   -0.6570   14.5600   -1.1340 C   0  0  0  0  0  0  0  0  0  0  0  0
   -0.3820   14.4800   -2.5200 N   0  0  0  0  0  0  0  0  0  0  0  0
    0.1940   14.3940   -0.0730 N   0  0  0  0  0  0  0  0  0  0  0  0
   -0.2910   14.4330    1.2230 C   0  0  0  0  0  0  0  0  0  0  0  0
   -1.1420   13.4210   -3.2810 C   0  0  0  0  0  0  0  0  0  0  0  0
    0.9490   14.7990   -3.0970 C   0  0  0  0  0  0  0  0  0  0  0  0
    1.2220   13.7110   -4.1060 C   0  0  0  0  0  0  0  0  0  0  0  0
   -1.1360   13.5740   -4.8030 C   0  0  0  0  0  0  0  0  0  0  0  0
    2.6050   13.1080   -4.2360 C   0  0  0  0  0  0  0  0  0  0  0  0
    1.5320   12.3590   -3.5130 C   0  0  0  0  0  0  0  0  0  0  0  0
    0.2910   13.6850   -5.3000 C   0  0  0  0  0  0  0  0  0  0  0  0
  1  2  1  0
  2  3  1  0
  2  4  2  0
  4  5  1  0
  3  6  2  0
  4  7  1  0
  6  7  1  0
  5  8  2  0
  5  9  1  0
  6 10  1  0
  7 11  2  0
 11 12  1  0
 11 13  1  0
 10 14  2  0
 13 14  1  0
 12 15  1  0
 12 16  1  0
 17 16  1  0
 15 18  1  0
 17 19  1  0
 17 20  1  0
 19 20  1  0
 17 21  1  0
 18 21  1  0
M  END
