mac-x0402-mac-x0346
     RDKit          3D

 16 17  0  0  0  0  0  0  0  0999 V2000
   -2.2480   13.4560   -3.2860 Cl  0  0  0  0  0  0  0  0  0  0  0  0
   -2.4250   14.8330   -2.1840 C   0  0  1  0  0  0  0  0  0  0  0  0
   -3.6500   15.6170   -2.5410 C   0  0  0  0  0  0  0  0  0  0  0  0
   -2.3460   14.4150   -0.7020 C   0  0  0  0  0  0  0  0  0  0  0  0
   -3.6800   14.1180   -0.0150 C   0  0  2  0  0  0  0  0  0  0  0  0
   -4.7980   15.4890   -1.8940 C   0  0  0  0  0  0  0  0  0  0  0  0
   -4.9530   14.5220   -0.7940 C   0  0  1  0  0  0  0  0  0  0  0  0
   -3.9180   14.8620    1.6160 S   0  0  0  0  0  0  0  0  0  0  0  0
   -5.3520   13.3820   -1.5090 O   0  0  0  0  0  0  0  0  0  0  0  0
   -5.6420   14.4140    1.4490 C   0  0  2  0  0  0  0  0  0  0  0  0
   -5.9980   14.8940    0.1270 N   0  0  0  0  0  0  0  0  0  0  0  0
   -6.4180   15.0100    2.5120 N   0  0  0  0  0  0  0  0  0  0  0  0
   -7.2410   14.8600   -0.4470 C   0  0  0  0  0  0  0  0  0  0  0  0
   -8.3200   14.6960    0.3670 N   0  0  0  0  0  0  0  0  0  0  0  0
   -7.3930   14.9660   -1.6690 O   0  0  0  0  0  0  0  0  0  0  0  0
   -7.9920   14.5910    1.7410 O   0  0  0  0  0  0  0  0  0  0  0  0
  2  1  1  6
  2  3  1  0
  2  4  1  0
  5  4  1  6
  3  6  2  0
  5  7  1  0
  6  7  1  0
  5  8  1  0
  7  9  1  6
  8 10  1  0
  7 11  1  0
 10 11  1  0
 10 12  1  1
 11 13  1  0
 13 14  1  0
 13 15  2  0
 14 16  1  0
M  END
