mac-x0365-diamond-x0895_0_A
     RDKit          3D

 12 12  0  0  0  0  0  0  0  0999 V2000
   -0.5170   14.8520   -1.4830 O   0  0  0  0  0  0  0  0  0  0  0  0
   -1.6740   14.9320   -2.1580 C   0  0  0  0  0  0  0  0  0  0  0  0
   -1.7290   14.6370   -3.3500 O   0  0  0  0  0  0  0  0  0  0  0  0
   -2.9020   15.4070   -1.4120 C   0  0  1  0  0  0  0  0  0  0  0  0
   -4.1320   15.0900   -2.2780 C   0  0  0  0  0  0  0  0  0  0  0  0
   -3.0760   15.0100    0.0510 C   0  0  0  0  0  0  0  0  0  0  0  0
   -2.1140   14.6320    0.7520 O   0  0  0  0  0  0  0  0  0  0  0  0
   -5.4590   15.3890   -1.6090 C   0  0  1  0  0  0  0  0  0  0  0  0
   -4.4650   15.1150    0.6560 C   0  0  0  0  0  0  0  0  0  0  0  0
   -6.4630   14.9560   -2.4290 F   0  0  0  0  0  0  0  0  0  0  0  0
   -5.5710   14.6500   -0.2950 C   0  0  1  0  0  0  0  0  0  0  0  0
   -6.8540   14.8780    0.2830 O   0  0  0  0  0  0  0  0  0  0  0  0
  1  2  1  0
  2  3  2  0
  4  2  1  6
  4  5  1  0
  4  6  1  0
  6  7  2  0
  5  8  1  0
  6  9  1  0
  8 10  1  6
  8 11  1  0
  9 11  1  0
 11 12  1  1
M  END
