mac-x0132-mac-x0417
     RDKit          3D

 27 30  0  0  0  0  0  0  0  0999 V2000
   -4.1990   15.2610    1.9170 N   0  0  0  0  0  0  0  0  0  0  0  0
   -5.2150   15.0220    1.0030 C   0  0  0  0  0  0  0  0  0  0  0  0
   -6.4830   14.9320    1.4380 N   0  0  0  0  0  0  0  0  0  0  0  0
   -4.8600   14.8910   -0.3140 C   0  0  0  0  0  0  0  0  0  0  0  0
   -5.9040   14.7080   -1.2110 C   0  0  0  0  0  0  0  0  0  0  0  0
   -7.4130   14.7410    0.4940 C   0  0  0  0  0  0  0  0  0  0  0  0
   -3.5260   14.9300   -0.7420 C   0  0  0  0  0  0  0  0  0  0  0  0
   -7.1840   14.6380   -0.8240 N   0  0  0  0  0  0  0  0  0  0  0  0
   -5.5750   14.5910   -2.5530 C   0  0  0  0  0  0  0  0  0  0  0  0
   -3.2010   14.7770   -2.0800 C   0  0  0  0  0  0  0  0  0  0  0  0
   -1.7530   14.7600   -2.5060 C   0  0  0  0  0  0  0  0  0  0  0  0
   -4.2430   14.6210   -2.9940 C   0  0  0  0  0  0  0  0  0  0  0  0
   -1.0600   13.4280   -2.2100 C   0  0  0  0  0  0  0  0  0  0  0  0
    0.3870   13.5890   -1.7250 C   0  0  0  0  0  0  0  0  0  0  0  0
    1.3140   12.7640   -2.4370 O   0  0  0  0  0  0  0  0  0  0  0  0
    0.7580   11.9350   -3.3570 C   0  0  0  0  0  0  0  0  0  0  0  0
    0.4990   10.7570   -3.1380 O   0  0  0  0  0  0  0  0  0  0  0  0
    0.4840   12.6290   -4.6790 C   0  0  0  0  0  0  0  0  0  0  0  0
    0.3350   11.6860   -5.8140 C   0  0  0  0  0  0  0  0  0  0  0  0
    1.2720   11.6540   -6.7620 N   0  0  0  0  0  0  0  0  0  0  0  0
   -0.7010   10.7540   -6.0660 C   0  0  0  0  0  0  0  0  0  0  0  0
    0.8560   10.6870   -7.6680 O   0  0  0  0  0  0  0  0  0  0  0  0
   -0.3190   10.1510   -7.2500 C   0  0  0  0  0  0  0  0  0  0  0  0
   -1.8960   10.3470   -5.4540 C   0  0  0  0  0  0  0  0  0  0  0  0
   -1.0480    9.1490   -7.8910 C   0  0  0  0  0  0  0  0  0  0  0  0
   -2.6560    9.3420   -6.0700 C   0  0  0  0  0  0  0  0  0  0  0  0
   -2.2370    8.7550   -7.2660 C   0  0  0  0  0  0  0  0  0  0  0  0
  1  2  1  0
  2  3  2  0
  2  4  1  0
  4  5  2  0
  3  6  1  0
  4  7  1  0
  5  8  1  0
  6  8  2  0
  5  9  1  0
  7 10  2  0
 10 11  1  0
  9 12  2  0
 10 12  1  0
 11 13  1  0
 13 14  1  0
 14 15  1  0
 15 16  1  0
 16 17  2  0
 16 18  1  0
 18 19  1  0
 19 20  2  0
 19 21  1  0
 20 22  1  0
 21 23  2  0
 22 23  1  0
 21 24  1  0
 23 25  1  0
 24 26  2  0
 25 27  2  0
 26 27  1  0
M  END
