mac-x0204-diamond-x0592_0_A
     RDKit          3D

 23 24  0  0  0  0  0  0  0  0999 V2000
    1.1690   13.0150   -3.0010 O   0  0  0  0  0  0  0  0  0  0  0  0
    0.1620   13.9100   -2.5940 C   0  0  0  0  0  0  0  0  0  0  0  0
    0.7970   15.1760   -2.4840 O   0  0  0  0  0  0  0  0  0  0  0  0
   -0.3210   13.4910   -1.1900 C   0  0  0  0  0  0  0  0  0  0  0  0
   -0.9320   13.9880   -3.6480 C   0  0  0  0  0  0  0  0  0  0  0  0
   -0.9380   14.6030   -0.3660 C   0  0  0  0  0  0  0  0  0  0  0  0
   -1.3240   15.1980   -4.2560 C   0  0  0  0  0  0  0  0  0  0  0  0
   -1.6030   12.8350   -4.0660 C   0  0  0  0  0  0  0  0  0  0  0  0
   -2.3440   14.7050   -0.7650 N   0  0  0  0  0  0  0  0  0  0  0  0
   -2.3330   15.1960   -5.2170 C   0  0  0  0  0  0  0  0  0  0  0  0
   -2.5850   12.8060   -4.9970 N   0  0  0  0  0  0  0  0  0  0  0  0
   -2.7590   16.3300   -5.8430 O   0  0  0  0  0  0  0  0  0  0  0  0
   -3.2480   14.7670    0.1370 C   0  0  0  0  0  0  0  0  0  0  0  0
   -2.9280   13.9890   -5.5520 C   0  0  0  0  0  0  0  0  0  0  0  0
   -2.9100   14.7520    1.4550 N   0  0  0  0  0  0  0  0  0  0  0  0
   -4.6730   14.8380   -0.0710 C   0  0  0  0  0  0  0  0  0  0  0  0
   -5.4100   15.2030   -1.2240 C   0  0  0  0  0  0  0  0  0  0  0  0
   -5.6440   14.5440    0.8640 C   0  0  0  0  0  0  0  0  0  0  0  0
   -6.7330   15.1390   -1.0290 N   0  0  0  0  0  0  0  0  0  0  0  0
   -6.8450   14.7370    0.2500 N   0  0  0  0  0  0  0  0  0  0  0  0
   -8.1460   14.5490    0.8600 C   0  0  0  0  0  0  0  0  0  0  0  0
   -8.0320   14.0460    2.2940 C   0  0  0  0  0  0  0  0  0  0  0  0
   -7.3130   14.9680    3.1130 O   0  0  0  0  0  0  0  0  0  0  0  0
  2  1  1  0
  2  3  1  0
  2  4  1  0
  2  5  1  0
  4  6  1  0
  5  7  2  0
  5  8  1  0
  6  9  1  0
  7 10  1  0
  8 11  2  0
 10 12  1  0
  9 13  2  3
 10 14  2  0
 11 14  1  0
 13 15  1  0
 13 16  1  0
 16 17  1  0
 16 18  2  0
 17 19  2  0
 18 20  1  0
 19 20  1  0
 20 21  1  0
 21 22  1  0
 22 23  1  0
M  END
