mac-x0379-diamond-x0910_0_A
     RDKit          3D

 15 16  0  0  0  0  0  0  0  0999 V2000
   -6.1100   15.5120   -1.3520 C   0  0  0  0  0  0  0  0  0  0  0  0
   -4.7420   15.0910   -1.7280 C   0  0  0  0  0  0  0  0  0  0  0  0
   -4.0640   14.2510   -1.0660 N   0  0  0  0  0  0  0  0  0  0  0  0
   -3.9020   15.6840   -3.0880 S   0  0  0  0  0  0  0  0  0  0  0  0
   -2.8390   14.1000   -1.6450 C   0  0  0  0  0  0  0  0  0  0  0  0
   -2.5360   14.7880   -2.7490 C   0  0  0  0  0  0  0  0  0  0  0  0
   -1.3380   14.8420   -3.5440 C   0  0  0  0  0  0  0  0  0  0  0  0
   -1.9540   13.3270   -1.1220 N   0  0  0  0  0  0  0  0  0  0  0  0
   -1.2000   14.7530   -4.7520 O   0  0  0  0  0  0  0  0  0  0  0  0
   -0.2220   15.0280   -2.7820 O   0  0  0  0  0  0  0  0  0  0  0  0
   -1.2100   13.9910   -0.2820 C   0  0  0  0  0  0  0  0  0  0  0  0
   -1.7170   14.2470    0.9460 N   0  0  0  0  0  0  0  0  0  0  0  0
   -0.0210   14.5060   -0.3900 N   0  0  0  0  0  0  0  0  0  0  0  0
   -0.8630   14.9310    1.6630 N   0  0  0  0  0  0  0  0  0  0  0  0
    0.1520   15.0730    0.8210 C   0  0  0  0  0  0  0  0  0  0  0  0
  1  2  1  0
  2  3  2  0
  2  4  1  0
  3  5  1  0
  4  6  1  0
  5  6  2  0
  6  7  1  0
  5  8  1  0
  7  9  2  0
  7 10  1  0
  8 11  1  0
 11 12  1  0
 11 13  2  0
 12 14  1  0
 13 15  1  0
 14 15  2  0
M  END
