mac-x0178-diamond-x0742_0_A
     RDKit          3D

 30 33  0  0  0  0  0  0  0  0999 V2000
   -0.4260   18.3900   -6.7420 N   0  0  0  0  0  0  0  0  0  0  0  0
   -1.7820   17.8380   -5.9310 S   0  0  0  0  0  0  0  0  0  0  0  0
   -2.7250   17.4090   -6.9120 O   0  0  0  0  0  0  0  0  0  0  0  0
   -2.0760   18.7650   -4.8680 O   0  0  0  0  0  0  0  0  0  0  0  0
   -1.1730   16.3920   -5.1770 C   0  0  0  0  0  0  0  0  0  0  0  0
    0.0420   16.5060   -4.5280 C   0  0  0  0  0  0  0  0  0  0  0  0
   -1.9170   15.2010   -5.2430 C   0  0  0  0  0  0  0  0  0  0  0  0
    0.5160   15.4070   -3.8990 C   0  0  0  0  0  0  0  0  0  0  0  0
   -1.4260   14.0860   -4.6040 C   0  0  0  0  0  0  0  0  0  0  0  0
   -0.2330   14.2470   -3.9460 C   0  0  0  0  0  0  0  0  0  0  0  0
    0.3170   13.2590   -3.1750 C   0  0  0  0  0  0  0  0  0  0  0  0
    0.4890   13.7770   -2.0950 N   0  0  0  0  0  0  0  0  0  0  0  0
    0.4940   11.9890   -3.5780 O   0  0  0  0  0  0  0  0  0  0  0  0
    0.8640   13.2600   -0.9250 C   0  0  0  0  0  0  0  0  0  0  0  0
   -0.2930   13.6880   -0.1180 C   0  0  0  0  0  0  0  0  0  0  0  0
   -0.3320   14.0210    1.2250 C   0  0  0  0  0  0  0  0  0  0  0  0
   -1.4710   13.7580   -0.8400 C   0  0  0  0  0  0  0  0  0  0  0  0
   -1.4530   14.4050    1.8510 N   0  0  0  0  0  0  0  0  0  0  0  0
   -2.6310   14.1400   -0.2300 C   0  0  0  0  0  0  0  0  0  0  0  0
   -3.9450   14.2210   -0.9770 C   0  0  1  0  0  0  0  0  0  0  0  0
   -2.5710   14.4510    1.0950 C   0  0  0  0  0  0  0  0  0  0  0  0
   -5.1690   13.7370   -0.1430 C   0  0  1  0  0  0  0  0  0  0  0  0
   -4.3130   15.6780   -1.2410 C   0  0  0  0  0  0  0  0  0  0  0  0
   -3.8300   14.8600    1.7310 C   0  0  0  0  0  0  0  0  0  0  0  0
   -5.5240   12.2810   -0.4870 C   0  0  0  0  0  0  0  0  0  0  0  0
   -4.9190   13.8520    1.3710 C   0  0  0  0  0  0  0  0  0  0  0  0
   -6.3720   14.5820   -0.6280 C   0  0  0  0  0  0  0  0  0  0  0  0
   -5.8050   15.6560   -1.5290 C   0  0  0  0  0  0  0  0  0  0  0  0
   -5.0110   11.6630   -1.4280 O   0  0  0  0  0  0  0  0  0  0  0  0
   -6.5640   11.6130    0.3800 C   0  0  0  0  0  0  0  0  0  0  0  0
  2  1  1  0
  2  3  2  0
  2  4  2  0
  2  5  1  0
  5  6  2  0
  5  7  1  0
  6  8  1  0
  7  9  2  0
  8 10  2  0
  9 10  1  0
 10 11  1  0
 11 12  2  3
 11 13  1  0
 12 14  1  0
 14 15  1  0
 15 16  2  0
 15 17  1  0
 16 18  1  0
 17 19  2  0
 19 20  1  0
 18 21  2  0
 19 21  1  0
 20 22  1  0
 20 23  1  1
 21 24  1  0
 22 25  1  1
 22 26  1  0
 24 26  1  0
 22 27  1  0
 23 28  1  0
 27 28  1  0
 25 29  2  0
 25 30  1  0
M  END
