mac-x0398-mac-x0365
     RDKit          3D

 12 12  0  0  0  0  0  0  0  0999 V2000
   -6.2990   14.8180    2.2110 N   0  0  0  0  0  0  0  0  0  0  0  0
   -5.5310   14.8730    1.0370 C   0  0  0  0  0  0  0  0  0  0  0  0
   -4.1350   14.7980    1.0660 C   0  0  0  0  0  0  0  0  0  0  0  0
   -6.1700   15.0100   -0.2020 C   0  0  0  0  0  0  0  0  0  0  0  0
   -5.4370   15.0660   -1.3860 C   0  0  0  0  0  0  0  0  0  0  0  0
   -3.3900   14.8520   -0.1230 C   0  0  0  0  0  0  0  0  0  0  0  0
   -6.1020   15.1980   -2.5740 O   0  0  0  0  0  0  0  0  0  0  0  0
   -4.0400   14.9830   -1.3650 C   0  0  0  0  0  0  0  0  0  0  0  0
   -3.2320   15.0260   -2.6120 C   0  0  0  0  0  0  0  0  0  0  0  0
   -3.6130   15.5760   -3.6360 O   0  0  0  0  0  0  0  0  0  0  0  0
   -2.0400   14.3470   -2.5420 O   0  0  0  0  0  0  0  0  0  0  0  0
   -1.1320   14.9550   -1.5500 O   0  0  0  0  0  0  0  0  0  0  0  0
  1  2  1  0
  2  3  2  0
  2  4  1  0
  4  5  2  0
  3  6  1  0
  5  7  1  0
  5  8  1  0
  6  8  2  0
  8  9  1  0
  9 10  2  0
  9 11  1  0
 11 12  1  0
M  END
