mac-x0472-diamond-x0592_0_A
     RDKit          3D

 25 27  0  0  0  0  0  0  0  0999 V2000
   -4.5000   15.1190   -3.0600 O   0  0  0  0  0  0  0  0  0  0  0  0
   -3.4270   14.3090   -2.5170 S   0  0  0  0  0  0  0  0  0  0  0  0
   -2.1880   14.2130   -3.2660 O   0  0  0  0  0  0  0  0  0  0  0  0
   -3.1870   14.7260   -0.8550 C   0  0  0  0  0  0  0  0  0  0  0  0
   -4.1270   12.6770   -2.3280 C   0  0  0  0  0  0  0  0  0  0  0  0
   -4.1100   15.0590    0.0110 C   0  0  0  0  0  0  0  0  0  0  0  0
   -2.0360   14.6760   -0.1550 C   0  0  0  0  0  0  0  0  0  0  0  0
   -3.4050   11.5530   -2.7260 C   0  0  0  0  0  0  0  0  0  0  0  0
   -5.4030   12.5450   -1.7710 C   0  0  0  0  0  0  0  0  0  0  0  0
   -3.8240   15.3850    1.3440 N   0  0  0  0  0  0  0  0  0  0  0  0
   -0.7960   14.8730   -0.4260 N   0  0  0  0  0  0  0  0  0  0  0  0
   -2.3680   14.2330    1.4730 S   0  0  0  0  0  0  0  0  0  0  0  0
   -3.9700   10.2870   -2.5670 C   0  0  0  0  0  0  0  0  0  0  0  0
   -5.9600   11.2770   -1.6120 C   0  0  0  0  0  0  0  0  0  0  0  0
   -5.4570   15.1000   -0.2230 C   0  0  0  0  0  0  0  0  0  0  0  0
   -0.7160   14.3180    1.7140 C   0  0  0  0  0  0  0  0  0  0  0  0
   -0.0350   14.6620    0.6810 N   0  0  0  0  0  0  0  0  0  0  0  0
   -5.2430   10.1560   -2.0120 C   0  0  0  0  0  0  0  0  0  0  0  0
   -6.2760   15.4940   -1.2860 C   0  0  0  0  0  0  0  0  0  0  0  0
   -6.2640   14.6620    0.7600 C   0  0  0  0  0  0  0  0  0  0  0  0
   -7.5670   15.3050   -0.9690 N   0  0  0  0  0  0  0  0  0  0  0  0
   -7.5050   14.8000    0.2880 N   0  0  0  0  0  0  0  0  0  0  0  0
   -8.6670   14.4480    1.0500 C   0  0  0  0  0  0  0  0  0  0  0  0
   -8.2310   14.0400    2.4610 C   0  0  0  0  0  0  0  0  0  0  0  0
   -7.3730   15.0280    3.0500 O   0  0  0  0  0  0  0  0  0  0  0  0
  1  2  2  0
  2  3  2  0
  2  4  1  0
  2  5  1  0
  4  6  2  3
  4  7  1  0
  5  8  2  0
  5  9  1  0
  6 10  1  0
  7 11  2  0
  7 12  1  0
  8 13  1  0
  9 14  2  0
  6 15  1  0
 12 16  1  0
 11 17  1  0
 16 17  2  0
 13 18  2  0
 14 18  1  0
 15 19  1  0
 15 20  2  0
 19 21  2  0
 20 22  1  0
 21 22  1  0
 22 23  1  0
 23 24  1  0
 24 25  1  0
M  END
