mac-x0115-diamond-x0864_0_A
     RDKit          3D

 27 30  0  0  0  0  0  0  0  0999 V2000
   -1.5000   18.1250   -5.3100 C   0  0  0  0  0  0  0  0  0  0  0  0
   -0.2330   17.2790   -5.3770 C   0  0  0  0  0  0  0  0  0  0  0  0
    0.8860   17.9420   -4.5940 C   0  0  0  0  0  0  0  0  0  0  0  0
   -0.5380   15.9890   -4.8080 O   0  0  0  0  0  0  0  0  0  0  0  0
    0.5020   14.9750   -4.8810 C   0  0  0  0  0  0  0  0  0  0  0  0
    0.2520   13.6400   -4.0380 C   0  0  1  0  0  0  0  0  0  0  0  0
    1.6140   13.0840   -3.6280 C   0  0  0  0  0  0  0  0  0  0  0  0
   -0.2220   14.0550   -2.6460 N   0  0  0  0  0  0  0  0  0  0  0  0
   -0.3120   12.4320   -4.8790 N   0  0  0  0  0  0  0  0  0  0  0  0
    2.2440   13.4730   -2.0690 S   0  0  0  0  0  0  0  0  0  0  0  0
    2.3340   12.3490   -4.4290 O   0  0  0  0  0  0  0  0  0  0  0  0
    0.7540   14.1650   -1.6810 C   0  0  0  0  0  0  0  0  0  0  0  0
   -1.4710   14.4840   -2.2330 C   0  0  0  0  0  0  0  0  0  0  0  0
   -1.2270   11.5110   -4.3570 C   0  0  0  0  0  0  0  0  0  0  0  0
    0.4450   11.9600   -6.0020 C   0  0  0  0  0  0  0  0  0  0  0  0
    1.5930   12.3310   -6.2290 O   0  0  0  0  0  0  0  0  0  0  0  0
    0.5740   14.7100   -0.4540 N   0  0  0  0  0  0  0  0  0  0  0  0
   -1.8060   14.2860   -0.7840 C   0  0  1  0  0  0  0  0  0  0  0  0
   -2.4770   15.0560   -2.8950 C   0  0  0  0  0  0  0  0  0  0  0  0
   -1.8040   10.5570   -5.1130 C   0  0  0  0  0  0  0  0  0  0  0  0
   -0.1670   10.9460   -6.9660 C   0  0  0  0  0  0  0  0  0  0  0  0
   -0.6820   14.7480    0.1460 C   0  0  0  0  0  0  0  0  0  0  0  0
   -3.1460   14.8940   -0.6080 N   0  0  0  0  0  0  0  0  0  0  0  0
   -3.4530   15.2670   -1.8140 C   0  0  0  0  0  0  0  0  0  0  0  0
   -1.5260   10.4090   -6.5670 C   0  0  1  0  0  0  0  0  0  0  0  0
   -0.8320   15.0960    1.3120 O   0  0  0  0  0  0  0  0  0  0  0  0
   -1.7000    8.5220   -7.0570 Br  0  0  0  0  0  0  0  0  0  0  0  0
  1  2  1  0
  2  3  1  0
  2  4  1  0
  4  5  1  0
  6  5  1  6
  6  7  1  0
  6  8  1  0
  6  9  1  0
  7 10  2  0
  7 11  1  0
  8 12  1  0
 10 12  2  0
  8 13  1  0
  9 14  1  0
  9 15  1  0
 15 16  2  0
 12 17  1  0
 13 18  1  0
 13 19  2  0
 14 20  2  0
 15 21  1  0
 17 22  1  0
 18 22  1  0
 18 23  1  1
 19 24  1  0
 23 24  2  0
 20 25  1  0
 21 25  1  0
 22 26  2  0
 25 27  1  1
M  END
