mac-x0396-mac-x0303
     RDKit          3D

 17 18  0  0  0  0  0  0  0  0999 V2000
   -3.3990   13.5590    1.1530 N   0  0  0  0  0  0  0  0  0  0  0  0
   -4.0530   13.8830    0.0030 C   0  0  0  0  0  0  0  0  0  0  0  0
   -3.8360   13.2710   -1.0340 O   0  0  0  0  0  0  0  0  0  0  0  0
   -4.9650   15.1050    0.1200 C   0  0  1  0  0  0  0  0  0  0  0  0
   -5.7260   15.3880   -1.1980 C   0  0  2  0  0  0  0  0  0  0  0  0
   -5.8940   14.9580    1.2940 C   0  0  0  0  0  0  0  0  0  0  0  0
   -3.7300   15.9140    0.2430 C   0  0  0  0  0  0  0  0  0  0  0  0
   -6.9820   14.6520   -1.3720 N   0  0  0  0  0  0  0  0  0  0  0  0
   -7.1780   14.5920    1.0860 C   0  0  0  0  0  0  0  0  0  0  0  0
   -4.7770   15.1310   -2.3180 C   0  0  0  0  0  0  0  0  0  0  0  0
   -3.0050   16.0190   -0.8900 C   0  0  0  0  0  0  0  0  0  0  0  0
   -8.3310   14.4370    2.3480 S   0  0  0  0  0  0  0  0  0  0  0  0
   -7.6030   14.3210   -0.2960 C   0  0  0  0  0  0  0  0  0  0  0  0
   -3.4730   15.4340   -2.1440 C   0  0  0  0  0  0  0  0  0  0  0  0
   -7.8240   13.0750    3.1910 N   0  0  0  0  0  0  0  0  0  0  0  0
   -8.2040   15.5380    3.2740 O   0  0  0  0  0  0  0  0  0  0  0  0
   -9.6150   14.1260    1.7570 O   0  0  0  0  0  0  0  0  0  0  0  0
  1  2  1  0
  2  3  2  0
  4  2  1  6
  4  5  1  0
  4  6  1  0
  4  7  1  0
  5  8  1  0
  6  9  2  0
  5 10  1  6
  7 11  2  0
  9 12  1  0
  8 13  2  0
  9 13  1  0
 10 14  2  0
 11 14  1  0
 12 15  1  0
 12 16  2  0
 12 17  2  0
M  END
