mac-x0453-diamond-x0855_0_A
     RDKit          3D

 21 22  0  0  0  0  0  0  0  0999 V2000
   -6.9800   14.1170    2.3570 N   0  0  0  0  0  0  0  0  0  0  0  0
   -6.0180   13.8400    1.2870 C   0  0  0  0  0  0  0  0  0  0  0  0
   -4.8070   14.7740    1.3570 C   0  0  0  0  0  0  0  0  0  0  0  0
   -4.0350   14.7800    0.0880 C   0  0  0  0  0  0  0  0  0  0  0  0
   -2.7300   14.3990   -0.1090 C   0  0  0  0  0  0  0  0  0  0  0  0
   -4.6010   15.1920   -1.0980 N   0  0  0  0  0  0  0  0  0  0  0  0
   -2.4960   14.5840   -1.4410 N   0  0  0  0  0  0  0  0  0  0  0  0
   -3.6530   15.0640   -1.9960 C   0  0  0  0  0  0  0  0  0  0  0  0
   -1.2540   14.3200   -2.1480 C   0  0  0  0  0  0  0  0  0  0  0  0
   -0.1880   13.6300   -1.2870 C   0  0  0  0  0  0  0  0  0  0  0  0
    1.2190   13.9830   -1.7630 C   0  0  0  0  0  0  0  0  0  0  0  0
    1.8100   12.9170   -2.5290 O   0  0  0  0  0  0  0  0  0  0  0  0
    0.9880   12.0710   -3.2100 C   0  0  0  0  0  0  0  0  0  0  0  0
    0.5770   11.0110   -2.7430 O   0  0  0  0  0  0  0  0  0  0  0  0
    0.6230   12.5380   -4.5950 C   0  0  0  0  0  0  0  0  0  0  0  0
   -0.4210   11.6940   -5.1350 N   0  0  0  0  0  0  0  0  0  0  0  0
   -0.3010   10.7580   -6.1200 C   0  0  0  0  0  0  0  0  0  0  0  0
   -1.6720   11.7950   -4.6400 N   0  0  0  0  0  0  0  0  0  0  0  0
   -1.5500   10.2160   -6.2560 C   0  0  0  0  0  0  0  0  0  0  0  0
   -2.3610   10.8830   -5.3330 C   0  0  0  0  0  0  0  0  0  0  0  0
   -2.0980    8.8660   -7.4170 Br  0  0  0  0  0  0  0  0  0  0  0  0
  1  2  1  0
  2  3  1  0
  3  4  1  0
  4  5  2  0
  4  6  1  0
  5  7  1  0
  6  8  2  0
  7  8  1  0
  7  9  1  0
  9 10  1  0
 10 11  1  0
 11 12  1  0
 12 13  1  0
 13 14  2  0
 13 15  1  0
 15 16  1  0
 16 17  1  0
 16 18  1  0
 17 19  2  0
 18 20  2  0
 19 20  1  0
 19 21  1  0
M  END
