mac-x0188-mac-x0375
     RDKit          3D

 24 27  0  0  0  0  0  0  0  0999 V2000
    0.9270   12.7780   -4.7480 C   0  0  1  0  0  0  0  0  0  0  0  0
    0.9460   12.0300   -3.3840 C   0  0  0  0  0  0  0  0  0  0  0  0
    0.7570   10.8260   -3.2800 O   0  0  0  0  0  0  0  0  0  0  0  0
    0.7700   11.8920   -5.8750 O   0  0  0  0  0  0  0  0  0  0  0  0
   -0.3530   13.3950   -4.4770 C   0  0  0  0  0  0  0  0  0  0  0  0
    1.0790   12.7580   -2.2490 O   0  0  0  0  0  0  0  0  0  0  0  0
   -1.3550   13.5150   -5.3600 O   0  0  0  0  0  0  0  0  0  0  0  0
   -0.6830   13.8910   -3.2600 C   0  0  0  0  0  0  0  0  0  0  0  0
   -0.2760   10.9930   -6.0650 C   0  0  0  0  0  0  0  0  0  0  0  0
    0.3130   13.8710   -2.2260 C   0  0  0  0  0  0  0  0  0  0  0  0
   -2.4260   14.0710   -4.6790 N   0  0  0  0  0  0  0  0  0  0  0  0
   -2.0210   14.2700   -3.4020 C   0  0  0  0  0  0  0  0  0  0  0  0
   -0.2240    9.8440   -6.8660 C   0  0  0  0  0  0  0  0  0  0  0  0
   -1.4770   11.2670   -5.4050 C   0  0  0  0  0  0  0  0  0  0  0  0
    0.4900   14.7780   -1.4240 O   0  0  0  0  0  0  0  0  0  0  0  0
   -2.9220   14.7700   -2.3870 C   0  0  0  0  0  0  0  0  0  0  0  0
   -1.3340    9.0030   -6.9940 C   0  0  0  0  0  0  0  0  0  0  0  0
   -2.5870   10.4280   -5.5400 C   0  0  0  0  0  0  0  0  0  0  0  0
   -4.2020   15.2160   -2.6930 C   0  0  0  0  0  0  0  0  0  0  0  0
   -2.5000   14.7770   -1.0490 C   0  0  0  0  0  0  0  0  0  0  0  0
   -2.5170    9.2960   -6.3310 C   0  0  0  0  0  0  0  0  0  0  0  0
   -5.0470   15.6570   -1.6760 C   0  0  0  0  0  0  0  0  0  0  0  0
   -3.3450   15.2190   -0.0350 C   0  0  0  0  0  0  0  0  0  0  0  0
   -4.6190   15.6590   -0.3560 C   0  0  0  0  0  0  0  0  0  0  0  0
  1  2  1  0
  2  3  2  0
  1  4  1  6
  1  5  1  0
  2  6  1  0
  5  7  1  0
  5  8  2  0
  4  9  1  0
  6 10  1  0
  8 10  1  0
  7 11  1  0
  8 12  1  0
 11 12  2  0
  9 13  2  0
  9 14  1  0
 10 15  2  0
 12 16  1  0
 13 17  1  0
 14 18  2  0
 16 19  2  0
 16 20  1  0
 17 21  2  0
 18 21  1  0
 19 22  1  0
 20 23  2  0
 22 24  2  0
 23 24  1  0
M  END
