mac-x0546-mac-x0415
     RDKit          3D

 15 16  0  0  0  0  0  0  0  0999 V2000
   -4.3720   15.4130   -6.0640 C   0  0  0  0  0  0  0  0  0  0  0  0
   -3.4330   16.4870   -6.0440 O   0  0  0  0  0  0  0  0  0  0  0  0
   -2.2730   16.2800   -5.3550 C   0  0  0  0  0  0  0  0  0  0  0  0
   -1.7950   15.0870   -4.9270 C   0  0  0  0  0  0  0  0  0  0  0  0
   -1.5280   17.5150   -5.1060 C   0  0  0  0  0  0  0  0  0  0  0  0
   -0.5170   15.0410   -4.1610 C   0  0  2  0  0  0  0  0  0  0  0  0
   -0.2320   17.5240   -4.7330 C   0  0  0  0  0  0  0  0  0  0  0  0
    0.3640   16.1850   -4.6100 C   0  0  0  0  0  0  0  0  0  0  0  0
    0.5170   13.9530   -4.2990 C   0  0  0  0  0  0  0  0  0  0  0  0
    0.2160   12.5000   -4.0480 C   0  0  0  0  0  0  0  0  0  0  0  0
    1.5840   15.8820   -4.8320 N   0  0  0  0  0  0  0  0  0  0  0  0
    1.6650   14.5280   -4.6490 C   0  0  0  0  0  0  0  0  0  0  0  0
    0.2690   11.9480   -2.6140 C   0  0  0  0  0  0  0  0  0  0  0  0
    0.4670   12.5310   -1.5590 O   0  0  0  0  0  0  0  0  0  0  0  0
    0.0490   10.6050   -2.5780 O   0  0  0  0  0  0  0  0  0  0  0  0
  1  2  1  0
  2  3  1  0
  3  4  2  0
  3  5  1  0
  6  4  1  6
  5  7  2  0
  6  8  1  0
  7  8  1  0
  6  9  1  0
  9 10  1  0
  8 11  2  0
  9 12  2  0
 11 12  1  0
 10 13  1  0
 13 14  2  0
 13 15  1  0
M  END
