mac-x0361-diamond-x0685_0_A
     RDKit          3D

 13 13  0  0  0  0  0  0  0  0999 V2000
   -6.3930   14.8060    1.9050 N   0  0  0  0  0  0  0  0  0  0  0  0
   -6.6840   14.7300    0.5500 C   0  0  0  0  0  0  0  0  0  0  0  0
   -7.8210   14.5670    0.1280 O   0  0  0  0  0  0  0  0  0  0  0  0
   -7.4790   14.8980    2.8550 C   0  0  0  0  0  0  0  0  0  0  0  0
   -7.9610   13.5160    3.2260 C   0  0  0  0  0  0  0  0  0  0  0  0
   -5.5700   14.8550   -0.4250 C   0  0  0  0  0  0  0  0  0  0  0  0
   -4.2470   14.7830    0.0290 C   0  0  0  0  0  0  0  0  0  0  0  0
   -5.8340   15.0380   -1.7860 C   0  0  0  0  0  0  0  0  0  0  0  0
   -3.1990   14.8910   -0.8780 C   0  0  0  0  0  0  0  0  0  0  0  0
   -4.7840   15.1330   -2.6810 C   0  0  0  0  0  0  0  0  0  0  0  0
   -3.4830   15.0600   -2.2290 C   0  0  0  0  0  0  0  0  0  0  0  0
   -2.4510   15.1570   -3.1690 C   0  0  0  0  0  0  0  0  0  0  0  0
   -1.5920   15.2570   -3.9520 C   0  0  0  0  0  0  0  0  0  0  0  0
  1  2  1  0
  2  3  2  0
  1  4  1  0
  4  5  1  0
  2  6  1  0
  6  7  2  0
  6  8  1  0
  7  9  1  0
  8 10  2  0
  9 11  2  0
 10 11  1  0
 11 12  1  0
 12 13  3  0
M  END
