mac-x0306-mac-x0433
     RDKit          3D

 14 15  0  0  0  0  0  0  0  0999 V2000
   -1.8810   15.4870    0.0760 C   0  0  0  0  0  0  0  0  0  0  0  0
   -3.2560   15.2680   -0.4610 C   0  0  0  0  0  0  0  0  0  0  0  0
   -3.4390   15.2360   -1.8110 N   0  0  0  0  0  0  0  0  0  0  0  0
   -4.2910   15.1070    0.4400 C   0  0  0  0  0  0  0  0  0  0  0  0
   -4.7060   15.0440   -2.2590 C   0  0  0  0  0  0  0  0  0  0  0  0
   -5.5720   14.9100   -0.0580 C   0  0  0  0  0  0  0  0  0  0  0  0
   -4.8760   15.0090   -3.6320 N   0  0  0  0  0  0  0  0  0  0  0  0
   -6.7360   14.7270    0.7840 C   0  0  0  0  0  0  0  0  0  0  0  0
   -5.7930   14.8830   -1.4120 C   0  0  0  0  0  0  0  0  0  0  0  0
   -7.2120   14.6760   -1.8580 C   0  0  0  0  0  0  0  0  0  0  0  0
   -6.7190   14.5060    2.1340 N   0  0  0  0  0  0  0  0  0  0  0  0
   -7.9820   14.7530    0.3490 N   0  0  0  0  0  0  0  0  0  0  0  0
   -8.7740   14.5460    1.4320 C   0  0  0  0  0  0  0  0  0  0  0  0
   -8.0090   14.3930    2.5590 C   0  0  0  0  0  0  0  0  0  0  0  0
  1  2  1  0
  2  3  2  0
  2  4  1  0
  3  5  1  0
  4  6  2  0
  5  7  1  0
  6  8  1  0
  5  9  2  0
  6  9  1  0
  9 10  1  0
  8 11  1  0
  8 12  2  0
 12 13  1  0
 11 14  1  0
 13 14  2  0
M  END
