mac-x0138-mac-x0373
     RDKit          3D

 21 23  0  0  0  0  0  0  0  0999 V2000
   -1.0870   13.9240   -2.7550 C   0  0  1  0  0  0  0  0  0  0  0  0
    0.3100   14.4650   -2.5950 C   0  0  0  0  0  0  0  0  0  0  0  0
    1.2120   13.5220   -2.2320 O   0  0  0  0  0  0  0  0  0  0  0  0
   -2.1680   14.4810   -1.9850 N   0  0  0  0  0  0  0  0  0  0  0  0
   -1.5050   12.9440   -3.8200 C   0  0  0  0  0  0  0  0  0  0  0  0
    0.6350   15.6260   -2.7560 O   0  0  0  0  0  0  0  0  0  0  0  0
   -3.4030   14.9770   -2.3330 C   0  0  0  0  0  0  0  0  0  0  0  0
   -2.0360   14.5430   -0.6680 C   0  0  0  0  0  0  0  0  0  0  0  0
   -0.9570   12.8420   -5.1060 C   0  0  0  0  0  0  0  0  0  0  0  0
   -2.5350   12.0510   -3.4420 C   0  0  0  0  0  0  0  0  0  0  0  0
   -4.0750   15.3320   -1.2450 N   0  0  0  0  0  0  0  0  0  0  0  0
   -3.2110   15.0500   -0.1940 C   0  0  0  0  0  0  0  0  0  0  0  0
   -0.9370   14.1560   -0.0100 N   0  0  0  0  0  0  0  0  0  0  0  0
   -1.4320   11.8650   -5.9830 C   0  0  0  0  0  0  0  0  0  0  0  0
   -3.0030   11.0820   -4.3160 C   0  0  0  0  0  0  0  0  0  0  0  0
   -3.2670   15.1530    1.1960 C   0  0  0  0  0  0  0  0  0  0  0  0
   -1.0880   14.3060    1.2990 C   0  0  0  0  0  0  0  0  0  0  0  0
   -2.4490   10.9890   -5.5900 C   0  0  0  0  0  0  0  0  0  0  0  0
   -4.3670   15.6190    1.8850 N   0  0  0  0  0  0  0  0  0  0  0  0
   -0.0140   13.9600    2.1030 N   0  0  0  0  0  0  0  0  0  0  0  0
   -2.1780   14.7630    1.9160 N   0  0  0  0  0  0  0  0  0  0  0  0
  1  2  1  6
  2  3  1  0
  1  4  1  0
  1  5  1  0
  2  6  2  0
  4  7  1  0
  4  8  1  0
  5  9  2  0
  5 10  1  0
  7 11  2  0
  8 12  2  0
 11 12  1  0
  8 13  1  0
  9 14  1  0
 10 15  2  0
 12 16  1  0
 13 17  2  0
 14 18  2  0
 15 18  1  0
 16 19  1  0
 17 20  1  0
 16 21  2  0
 17 21  1  0
M  END
