mac-x0439-mac-x0178
     RDKit          3D

 17 19  0  0  0  0  0  0  0  0999 V2000
   -2.0330   15.7370   -5.6360 N   0  0  0  0  0  0  0  0  0  0  0  0
   -2.2120   16.2920   -4.1970 S   0  0  0  0  0  0  0  0  0  0  0  0
   -1.5770   17.8610   -4.3940 N   0  0  0  0  0  0  0  0  0  0  0  0
   -1.1590   16.8240   -5.7900 C   0  0  0  0  0  0  0  0  0  0  0  0
   -3.3710   16.5210   -4.4630 O   0  0  0  0  0  0  0  0  0  0  0  0
   -0.6190   15.5540   -3.8300 C   0  0  0  0  0  0  0  0  0  0  0  0
   -0.3280   16.8250   -4.5280 C   0  0  1  0  0  0  0  0  0  0  0  0
   -0.8180   17.8340   -6.5840 C   0  0  0  0  0  0  0  0  0  0  0  0
    0.6530   15.1870   -3.6620 C   0  0  0  0  0  0  0  0  0  0  0  0
    0.9780   17.1040   -4.7350 C   0  0  0  0  0  0  0  0  0  0  0  0
    0.2530   18.7530   -6.3300 C   0  0  0  0  0  0  0  0  0  0  0  0
    1.2510   13.9950   -2.9770 C   0  0  0  0  0  0  0  0  0  0  0  0
    1.5870   16.1230   -4.2250 N   0  0  0  0  0  0  0  0  0  0  0  0
    1.1750   18.3890   -5.4140 C   0  0  0  0  0  0  0  0  0  0  0  0
    2.6350   14.0930   -2.8620 O   0  0  0  0  0  0  0  0  0  0  0  0
    0.6800   13.8350   -1.6950 O   0  0  0  0  0  0  0  0  0  0  0  0
    0.9050   12.7670   -3.5960 O   0  0  0  0  0  0  0  0  0  0  0  0
  1  2  1  0
  2  3  1  0
  1  4  1  0
  2  5  2  0
  2  6  1  0
  7  4  1  6
  6  7  1  0
  4  8  2  0
  6  9  2  0
  7 10  1  0
  8 11  1  0
  9 12  1  0
  9 13  1  0
 10 13  2  0
 10 14  1  0
 11 14  2  0
 12 15  1  0
 12 16  1  0
 12 17  1  0
M  END
