mac-x0263-mac-x0555
     RDKit          3D

 14 15  0  0  0  0  0  0  0  0999 V2000
  -11.4890   14.3180    2.4720 O   0  0  0  0  0  0  0  0  0  0  0  0
  -10.8180   15.4450    2.7990 C   0  0  0  0  0  0  0  0  0  0  0  0
  -11.2270   16.2260    3.6380 O   0  0  0  0  0  0  0  0  0  0  0  0
   -9.5400   15.6270    2.0230 C   0  0  0  0  0  0  0  0  0  0  0  0
   -8.9520   14.3100    1.5290 C   0  0  0  0  0  0  0  0  0  0  0  0
   -7.6160   14.5600    0.9220 C   0  0  0  0  0  0  0  0  0  0  0  0
   -7.4570   14.8990   -0.3990 N   0  0  0  0  0  0  0  0  0  0  0  0
   -6.4610   14.5020    1.5310 N   0  0  0  0  0  0  0  0  0  0  0  0
   -6.1200   15.0710   -0.6340 C   0  0  0  0  0  0  0  0  0  0  0  0
   -5.5180   14.8160    0.5890 C   0  0  0  0  0  0  0  0  0  0  0  0
   -5.4070   15.4160   -1.7750 C   0  0  0  0  0  0  0  0  0  0  0  0
   -4.1280   14.9020    0.7100 C   0  0  0  0  0  0  0  0  0  0  0  0
   -4.0180   15.4960   -1.6420 C   0  0  0  0  0  0  0  0  0  0  0  0
   -3.3900   15.2420   -0.4210 C   0  0  0  0  0  0  0  0  0  0  0  0
  1  2  1  0
  2  3  2  0
  2  4  1  0
  4  5  1  0
  5  6  1  0
  6  7  1  0
  6  8  2  0
  7  9  1  0
  8 10  1  0
  9 10  2  0
  9 11  1  0
 10 12  1  0
 11 13  2  0
 12 14  2  0
 13 14  1  0
M  END
