mac-x0180-mac-x0360
     RDKit          3D

 22 24  0  0  0  0  0  0  0  0999 V2000
   -4.8950   15.4500    1.1400 C   0  0  0  0  0  0  0  0  0  0  0  0
   -4.8610   15.6950   -0.3480 C   0  0  0  0  0  0  0  0  0  0  0  0
   -5.7890   16.1450   -1.0040 O   0  0  0  0  0  0  0  0  0  0  0  0
   -3.6790   15.2180   -1.1170 C   0  0  0  0  0  0  0  0  0  0  0  0
   -3.5990   13.6430   -1.3330 S   0  0  0  0  0  0  0  0  0  0  0  0
   -2.4600   15.6500   -1.9510 C   0  0  0  0  0  0  0  0  0  0  0  0
   -2.1420   14.1440   -2.2100 C   0  0  0  0  0  0  0  0  0  0  0  0
   -4.6850   14.5160   -0.5090 O   0  0  0  0  0  0  0  0  0  0  0  0
   -2.6060   16.1340   -3.3400 C   0  0  0  0  0  0  0  0  0  0  0  0
   -1.1140   16.0780   -1.5050 C   0  0  0  0  0  0  0  0  0  0  0  0
   -4.5390   12.3430   -0.9190 C   0  0  0  0  0  0  0  0  0  0  0  0
   -2.0370   13.8590   -3.6200 O   0  0  0  0  0  0  0  0  0  0  0  0
   -0.8710   13.7670   -1.6300 O   0  0  0  0  0  0  0  0  0  0  0  0
   -1.4300   16.6390   -3.7160 C   0  0  0  0  0  0  0  0  0  0  0  0
   -4.3360   11.1530   -1.5410 C   0  0  0  0  0  0  0  0  0  0  0  0
   -5.5460   12.5250    0.0450 C   0  0  0  0  0  0  0  0  0  0  0  0
   -0.5130   16.5920   -2.6090 C   0  0  0  0  0  0  0  0  0  0  0  0
   -5.1590   10.1030   -1.2140 C   0  0  0  0  0  0  0  0  0  0  0  0
   -6.3700   11.4570    0.3650 C   0  0  0  0  0  0  0  0  0  0  0  0
   -7.6300   11.6440    1.5290 Cl  0  0  0  0  0  0  0  0  0  0  0  0
   -4.9020    8.6160   -2.0170 Cl  0  0  0  0  0  0  0  0  0  0  0  0
   -6.1790   10.2360   -0.2670 C   0  0  0  0  0  0  0  0  0  0  0  0
  1  2  1  0
  2  3  2  0
  2  4  1  0
  4  5  2  0
  6  4  1  0
  5  7  1  0
  6  7  1  0
  5  8  2  0
  6  9  1  0
  6 10  1  0
  5 11  1  0
  7 12  1  0
  7 13  1  0
  9 14  2  0
 11 15  2  0
 11 16  1  0
 10 17  2  0
 14 17  1  0
 15 18  1  0
 16 19  2  0
 19 20  1  0
 18 21  1  0
 18 22  2  0
 19 22  1  0
M  END
