mac-x0223-mac-x0527
     RDKit          3D

 28 30  0  0  0  0  0  0  0  0999 V2000
    1.2920   18.6020   -5.8330 C   0  0  0  0  0  0  0  0  0  0  0  0
    0.1820   18.3880   -4.9960 O   0  0  0  0  0  0  0  0  0  0  0  0
   -0.1280   17.0790   -4.8560 C   0  0  0  0  0  0  0  0  0  0  0  0
   -1.4610   16.8460   -4.5850 C   0  0  0  0  0  0  0  0  0  0  0  0
    0.7640   16.0310   -4.9530 C   0  0  0  0  0  0  0  0  0  0  0  0
   -2.2440   17.9720   -4.5020 O   0  0  0  0  0  0  0  0  0  0  0  0
   -1.9690   15.5420   -4.4070 C   0  0  0  0  0  0  0  0  0  0  0  0
    0.3020   14.7290   -4.8130 C   0  0  0  0  0  0  0  0  0  0  0  0
    1.2570   13.5450   -4.8850 C   0  0  0  0  0  0  0  0  0  0  0  0
   -1.0470   14.4720   -4.5830 C   0  0  0  0  0  0  0  0  0  0  0  0
   -3.3050   15.3470   -4.0390 N   0  0  0  0  0  0  0  0  0  0  0  0
    1.0050   12.6450   -3.6660 C   0  0  0  0  0  0  0  0  0  0  0  0
   -1.2810   13.0360   -4.5760 C   0  0  0  0  0  0  0  0  0  0  0  0
   -3.1870   15.3040   -2.7120 C   0  0  0  0  0  0  0  0  0  0  0  0
    0.4380   11.5610   -3.6250 O   0  0  0  0  0  0  0  0  0  0  0  0
    1.4730   13.1800   -2.5130 O   0  0  0  0  0  0  0  0  0  0  0  0
   -2.0480   12.2420   -3.7310 C   0  0  0  0  0  0  0  0  0  0  0  0
   -0.5810   12.4220   -5.6380 C   0  0  0  0  0  0  0  0  0  0  0  0
   -1.8650   15.4320   -2.3470 N   0  0  0  0  0  0  0  0  0  0  0  0
   -4.0540   15.1550   -1.4900 C   0  0  0  0  0  0  0  0  0  0  0  0
   -2.0930   10.8590   -3.9610 C   0  0  0  0  0  0  0  0  0  0  0  0
   -0.6220   11.0670   -5.8640 C   0  0  0  0  0  0  0  0  0  0  0  0
   -5.4320   15.0950   -1.4360 C   0  0  0  0  0  0  0  0  0  0  0  0
   -3.2830   15.0830   -0.3490 N   0  0  0  0  0  0  0  0  0  0  0  0
   -1.3800   10.2750   -5.0210 C   0  0  0  0  0  0  0  0  0  0  0  0
   -6.0970   14.9580   -0.2500 N   0  0  0  0  0  0  0  0  0  0  0  0
   -3.9510   14.9480    0.8160 C   0  0  0  0  0  0  0  0  0  0  0  0
   -5.3280   14.8860    0.8660 C   0  0  0  0  0  0  0  0  0  0  0  0
  1  2  1  0
  2  3  1  0
  3  4  2  0
  3  5  1  0
  4  6  1  0
  4  7  1  0
  5  8  2  0
  8  9  1  0
  7 10  2  0
  8 10  1  0
  7 11  1  0
  9 12  1  0
 10 13  1  0
 11 14  2  3
 12 15  2  0
 12 16  1  0
 13 17  2  0
 13 18  1  0
 14 19  1  0
 14 20  1  0
 17 21  1  0
 18 22  2  0
 20 23  2  0
 20 24  1  0
 21 25  2  0
 22 25  1  0
 23 26  1  0
 24 27  2  0
 26 28  2  0
 27 28  1  0
M  END
