mac-x0433-mac-x0213
     RDKit          3D

 23 25  0  0  0  0  0  0  0  0999 V2000
   -3.0900   15.3770    0.8010 C   0  0  0  0  0  0  0  0  0  0  0  0
   -4.3660   15.1700    0.0590 C   0  0  0  0  0  0  0  0  0  0  0  0
   -5.5260   14.9350    0.7580 C   0  0  0  0  0  0  0  0  0  0  0  0
   -4.3310   15.2170   -1.2790 N   0  0  0  0  0  0  0  0  0  0  0  0
   -5.4770   15.0260   -1.9410 C   0  0  0  0  0  0  0  0  0  0  0  0
   -6.6680   14.7550    0.0060 C   0  0  0  0  0  0  0  0  0  0  0  0
   -7.9740   14.5000    0.6990 C   0  0  0  0  0  0  0  0  0  0  0  0
   -5.3390   15.0780   -3.3260 N   0  0  0  0  0  0  0  0  0  0  0  0
   -6.6630   14.7970   -1.3430 N   0  0  0  0  0  0  0  0  0  0  0  0
   -3.9930   14.7850   -3.8410 C   0  0  0  0  0  0  0  0  0  0  0  0
   -3.5580   15.4060   -5.2080 C   0  0  0  0  0  0  0  0  0  0  0  0
   -2.2190   16.1130   -5.1650 C   0  0  0  0  0  0  0  0  0  0  0  0
   -1.1430   15.4420   -4.6300 C   0  0  0  0  0  0  0  0  0  0  0  0
   -1.9870   17.4230   -5.6380 C   0  0  0  0  0  0  0  0  0  0  0  0
   -1.1580   14.0610   -4.0790 C   0  0  0  0  0  0  0  0  0  0  0  0
    0.1310   16.0080   -4.5470 C   0  0  0  0  0  0  0  0  0  0  0  0
   -0.7070   18.0030   -5.5570 C   0  0  0  0  0  0  0  0  0  0  0  0
    0.3260   13.7120   -3.9650 C   0  0  1  0  0  0  0  0  0  0  0  0
    1.1070   15.0500   -3.9190 C   0  0  0  0  0  0  0  0  0  0  0  0
    0.3660   17.2950   -5.0070 C   0  0  0  0  0  0  0  0  0  0  0  0
    0.5030   12.8510   -2.7410 C   0  0  0  0  0  0  0  0  0  0  0  0
    0.1190   11.5640   -2.9260 O   0  0  0  0  0  0  0  0  0  0  0  0
    0.9340   13.2360   -1.6730 O   0  0  0  0  0  0  0  0  0  0  0  0
  1  2  1  0
  2  3  2  0
  2  4  1  0
  4  5  2  0
  3  6  1  0
  6  7  1  0
  5  8  1  0
  5  9  1  0
  6  9  2  0
  8 10  1  0
 10 11  1  0
 11 12  1  0
 12 13  1  0
 12 14  2  0
 13 15  1  0
 13 16  2  0
 14 17  1  0
 15 18  1  0
 16 19  1  0
 18 19  1  0
 16 20  1  0
 17 20  2  0
 18 21  1  1
 21 22  1  0
 21 23  2  0
M  END
