mac-x0204-mac-x0228
     RDKit          3D

 21 23  0  0  0  0  0  0  0  0999 V2000
   -0.0630   12.9190   -2.5510 O   0  0  0  0  0  0  0  0  0  0  0  0
   -0.6190   14.1970   -2.8290 C   0  0  0  0  0  0  0  0  0  0  0  0
    0.5120   15.0330   -2.9800 O   0  0  0  0  0  0  0  0  0  0  0  0
   -1.5410   14.7080   -1.6970 C   0  0  0  0  0  0  0  0  0  0  0  0
   -1.4780   14.1790   -4.0330 C   0  0  0  0  0  0  0  0  0  0  0  0
   -0.9770   15.0890   -0.7190 O   0  0  0  0  0  0  0  0  0  0  0  0
   -1.8020   15.3750   -4.6730 C   0  0  0  0  0  0  0  0  0  0  0  0
   -1.9900   12.9910   -4.5360 C   0  0  0  0  0  0  0  0  0  0  0  0
   -3.0630   14.8120   -1.6470 C   0  0  0  0  0  0  0  0  0  0  0  0
   -2.6200   15.3470   -5.7770 C   0  0  0  0  0  0  0  0  0  0  0  0
   -2.7910   12.9320   -5.6140 N   0  0  0  0  0  0  0  0  0  0  0  0
   -3.5840   14.6050   -0.3590 C   0  0  0  0  0  0  0  0  0  0  0  0
   -3.9800   15.0930   -2.7010 C   0  0  0  0  0  0  0  0  0  0  0  0
   -2.9680   16.4910   -6.4530 O   0  0  0  0  0  0  0  0  0  0  0  0
   -3.0900   14.1130   -6.2100 C   0  0  0  0  0  0  0  0  0  0  0  0
   -4.9400   14.6760   -0.1360 C   0  0  0  0  0  0  0  0  0  0  0  0
   -5.3700   15.1610   -2.4430 C   0  0  0  0  0  0  0  0  0  0  0  0
   -5.8200   14.9510   -1.1580 C   0  0  0  0  0  0  0  0  0  0  0  0
   -5.6830   14.4880    1.1260 C   0  0  0  0  0  0  0  0  0  0  0  0
   -7.1340   14.9860   -0.7570 O   0  0  0  0  0  0  0  0  0  0  0  0
   -7.1090   14.4370    0.5820 C   0  0  0  0  0  0  0  0  0  0  0  0
  2  1  1  0
  2  3  1  0
  2  4  1  0
  2  5  1  0
  4  6  2  0
  5  7  2  0
  5  8  1  0
  4  9  1  0
  7 10  1  0
  8 11  2  0
  9 12  2  0
  9 13  1  0
 10 14  1  0
 10 15  2  0
 11 15  1  0
 12 16  1  0
 13 17  2  0
 16 18  2  0
 17 18  1  0
 16 19  1  0
 18 20  1  0
 19 21  1  0
 20 21  1  0
M  END
