mac-x0182-diamond-x0864_0_A
     RDKit          3D

 15 16  0  0  0  0  0  0  0  0999 V2000
    1.8190   11.8600   -7.1460 O   0  0  0  0  0  0  0  0  0  0  0  0
    0.8520   11.4370   -6.6170 C   0  0  0  0  0  0  0  0  0  0  0  0
    0.4620   11.9790   -5.4540 N   0  0  0  0  0  0  0  0  0  0  0  0
    0.0240   10.2260   -7.1020 C   0  0  1  0  0  0  0  0  0  0  0  0
   -0.7280   11.1130   -4.7220 S   0  0  2  0  0  0  0  0  0  0  0  0
   -1.0140    9.8780   -6.0330 C   0  0  2  0  0  0  0  0  0  0  0  0
   -0.5300   10.2850   -8.4960 C   0  0  0  0  0  0  0  0  0  0  0  0
   -1.7220   12.1550   -4.8370 O   0  0  0  0  0  0  0  0  0  0  0  0
    0.0020   10.7420   -3.4230 N   0  0  0  0  0  0  0  0  0  0  0  0
   -0.7350    7.9670   -5.8280 Br  0  0  0  0  0  0  0  0  0  0  0  0
   -2.4460    9.7700   -6.4360 C   0  0  0  0  0  0  0  0  0  0  0  0
   -1.8350   10.0900   -8.7500 C   0  0  0  0  0  0  0  0  0  0  0  0
    0.7750   11.7850   -2.8750 C   0  0  0  0  0  0  0  0  0  0  0  0
   -2.8040    9.8530   -7.7090 C   0  0  0  0  0  0  0  0  0  0  0  0
    0.7700   12.1510   -1.6920 O   0  0  0  0  0  0  0  0  0  0  0  0
  1  2  2  0
  2  3  1  0
  2  4  1  0
  5  3  1  6
  4  6  1  0
  5  6  1  0
  4  7  1  6
  5  8  2  0
  5  9  2  0
  6 10  1  1
  6 11  1  0
  7 12  2  0
  9 13  1  0
 11 14  2  0
 12 14  1  0
 13 15  2  0
M  END
