mac-x0182-mac-x0338
     RDKit          3D

 23 25  0  0  0  0  0  0  0  0999 V2000
    1.6880   11.8820   -6.9460 O   0  0  0  0  0  0  0  0  0  0  0  0
    0.7540   11.5810   -6.2440 C   0  0  0  0  0  0  0  0  0  0  0  0
    0.5020   12.1050   -5.0000 N   0  0  0  0  0  0  0  0  0  0  0  0
   -0.2480   10.5560   -6.6250 C   0  0  0  0  0  0  0  0  0  0  0  0
   -0.6300   11.1750   -4.1790 S   0  0  2  0  0  0  0  0  0  0  0  0
   -1.0920   10.2270   -5.5690 C   0  0  0  0  0  0  0  0  0  0  0  0
   -0.3900    9.9430   -7.8610 C   0  0  0  0  0  0  0  0  0  0  0  0
   -1.6710   12.2210   -3.7930 N   0  0  0  0  0  0  0  0  0  0  0  0
    0.1110   10.3420   -3.2700 O   0  0  0  0  0  0  0  0  0  0  0  0
   -2.1030    9.2900   -5.6830 C   0  0  0  0  0  0  0  0  0  0  0  0
   -1.4080    8.9900   -8.0060 C   0  0  0  0  0  0  0  0  0  0  0  0
   -1.6370   12.7110   -2.3910 C   0  0  0  0  0  0  0  0  0  0  0  0
   -2.2560    8.6670   -6.9260 C   0  0  0  0  0  0  0  0  0  0  0  0
   -1.7230   14.2430   -2.2830 C   0  0  0  0  0  0  0  0  0  0  0  0
   -3.1200   14.6140   -1.8830 C   0  0  0  0  0  0  0  0  0  0  0  0
   -3.4180   14.6540   -0.5580 N   0  0  0  0  0  0  0  0  0  0  0  0
   -4.0750   14.8970   -2.8550 C   0  0  0  0  0  0  0  0  0  0  0  0
   -4.7130   14.9810   -0.2720 C   0  0  0  0  0  0  0  0  0  0  0  0
   -5.3490   15.2200   -2.5570 N   0  0  0  0  0  0  0  0  0  0  0  0
   -5.1290   15.0270    1.1430 C   0  0  0  0  0  0  0  0  0  0  0  0
   -5.6510   15.2590   -1.2450 C   0  0  0  0  0  0  0  0  0  0  0  0
   -4.1420   15.0970    2.0690 N   0  0  0  0  0  0  0  0  0  0  0  0
   -6.3090   14.9840    1.4630 O   0  0  0  0  0  0  0  0  0  0  0  0
  1  2  2  0
  2  3  1  0
  2  4  1  0
  5  3  1  6
  4  6  2  0
  5  6  1  0
  4  7  1  0
  5  8  2  0
  5  9  2  0
  6 10  1  0
  7 11  2  0
  8 12  1  0
 10 13  2  0
 11 13  1  0
 12 14  1  0
 14 15  1  0
 15 16  2  0
 15 17  1  0
 16 18  1  0
 17 19  2  0
 18 20  1  0
 18 21  2  0
 19 21  1  0
 20 22  1  0
 20 23  2  0
M  END
