mac-x0302-mac-x0381
     RDKit          3D

 30 32  0  0  0  0  0  0  0  0999 V2000
    1.5680   14.2380   -3.6640 O   0  0  0  0  0  0  0  0  0  0  0  0
    0.5360   14.0760   -2.8150 C   0  0  0  0  0  0  0  0  0  0  0  0
    0.7020   13.5260   -1.7400 O   0  0  0  0  0  0  0  0  0  0  0  0
   -0.7660   14.6390   -3.3530 C   0  0  0  0  0  0  0  0  0  0  0  0
   -1.7580   14.6050   -2.2950 N   0  0  0  0  0  0  0  0  0  0  0  0
   -3.0150   15.1180   -2.4830 C   0  0  0  0  0  0  0  0  0  0  0  0
   -3.4080   15.5880   -3.5430 O   0  0  0  0  0  0  0  0  0  0  0  0
   -3.9110   15.0760   -1.3110 C   0  0  0  0  0  0  0  0  0  0  0  0
   -5.2810   14.9390   -1.5070 C   0  0  0  0  0  0  0  0  0  0  0  0
   -3.3770   15.1710   -0.0210 C   0  0  0  0  0  0  0  0  0  0  0  0
   -6.1380   14.8870   -0.4250 C   0  0  0  0  0  0  0  0  0  0  0  0
   -4.2290   15.1260    1.0730 C   0  0  0  0  0  0  0  0  0  0  0  0
   -7.4950   14.7440   -0.5420 O   0  0  0  0  0  0  0  0  0  0  0  0
   -5.6020   14.9830    0.8690 C   0  0  0  0  0  0  0  0  0  0  0  0
   -8.3100   14.5450    0.6050 C   0  0  0  0  0  0  0  0  0  0  0  0
   -7.8950   13.2870    1.3550 C   0  0  0  0  0  0  0  0  0  0  0  0
   -7.3040   13.5780    2.7430 C   0  0  0  0  0  0  0  0  0  0  0  0
   -8.2020   14.3060    3.7850 C   0  0  0  0  0  0  0  0  0  0  0  0
   -8.3920   13.4030    4.8820 N   0  0  0  0  0  0  0  0  0  0  0  0
   -7.3850   15.3540    4.3500 N   0  0  0  0  0  0  0  0  0  0  0  0
   -9.4760   14.8070    3.1110 C   0  0  0  0  0  0  0  0  0  0  0  0
   -9.4750   15.8520    2.1810 C   0  0  0  0  0  0  0  0  0  0  0  0
  -10.7100   14.2050    3.3820 C   0  0  0  0  0  0  0  0  0  0  0  0
  -10.6170   16.2850    1.5060 C   0  0  0  0  0  0  0  0  0  0  0  0
  -11.8670   14.6180    2.7220 C   0  0  0  0  0  0  0  0  0  0  0  0
  -11.8310   15.6480    1.7700 C   0  0  0  0  0  0  0  0  0  0  0  0
  -10.5850   17.3280    0.5660 C   0  0  0  0  0  0  0  0  0  0  0  0
  -12.9690   16.0620    1.0620 C   0  0  0  0  0  0  0  0  0  0  0  0
  -11.7300   17.7340   -0.1090 C   0  0  0  0  0  0  0  0  0  0  0  0
  -12.9290   17.0930    0.1380 C   0  0  0  0  0  0  0  0  0  0  0  0
  1  2  1  0
  2  3  2  0
  2  4  1  0
  4  5  1  0
  5  6  1  0
  6  7  2  0
  6  8  1  0
  8  9  2  0
  8 10  1  0
  9 11  1  0
 10 12  2  0
 11 13  1  0
 11 14  2  0
 12 14  1  0
 13 15  1  0
 15 16  1  0
 16 17  1  0
 17 18  1  0
 18 19  1  0
 18 20  1  0
 18 21  1  0
 21 22  2  0
 21 23  1  0
 22 24  1  0
 23 25  2  0
 24 26  2  0
 25 26  1  0
 24 27  1  0
 26 28  1  0
 27 29  2  0
 28 30  2  0
 29 30  1  0
M  END
