mac-x1493-mac-x0319
     RDKit          3D

 24 26  0  0  0  0  0  0  0  0999 V2000
   -1.6740   14.8020   -1.7260 O   0  0  0  0  0  0  0  0  0  0  0  0
   -2.7820   14.9520   -2.4830 C   0  0  0  0  0  0  0  0  0  0  0  0
   -2.6130   15.0930   -3.7420 N   0  0  0  0  0  0  0  0  0  0  0  0
   -3.9580   14.8970   -1.6660 C   0  0  0  0  0  0  0  0  0  0  0  0
   -3.9260   15.0150   -0.2880 C   0  0  0  0  0  0  0  0  0  0  0  0
   -5.1600   14.7070   -2.3010 C   0  0  0  0  0  0  0  0  0  0  0  0
   -1.2920   15.0440   -4.0410 C   0  0  0  0  0  0  0  0  0  0  0  0
   -5.1270   14.9230    0.4100 C   0  0  0  0  0  0  0  0  0  0  0  0
   -6.3350   14.6170   -1.6620 N   0  0  0  0  0  0  0  0  0  0  0  0
   -0.6350   16.1460   -4.5300 C   0  0  0  0  0  0  0  0  0  0  0  0
   -0.6310   13.8540   -3.8120 C   0  0  0  0  0  0  0  0  0  0  0  0
   -6.3180   14.7180   -0.3310 C   0  0  0  0  0  0  0  0  0  0  0  0
   -5.1820   15.0250    1.7990 C   0  0  0  0  0  0  0  0  0  0  0  0
    0.7190   13.7290   -4.0510 C   0  0  0  0  0  0  0  0  0  0  0  0
    0.7080   16.0460   -4.7750 C   0  0  0  0  0  0  0  0  0  0  0  0
    1.3520   12.3930   -3.7550 C   0  0  0  0  0  0  0  0  0  0  0  0
    1.3510   17.1340   -5.2520 O   0  0  0  0  0  0  0  0  0  0  0  0
   -7.5150   14.6160    0.3490 C   0  0  0  0  0  0  0  0  0  0  0  0
   -6.4090   14.9200    2.4570 C   0  0  0  0  0  0  0  0  0  0  0  0
    1.4060   14.8490   -4.5380 C   0  0  0  0  0  0  0  0  0  0  0  0
    0.8260   11.8050   -2.4510 C   0  0  0  0  0  0  0  0  0  0  0  0
   -7.5750   14.7130    1.7330 C   0  0  0  0  0  0  0  0  0  0  0  0
    0.5410   10.4720   -2.5060 O   0  0  0  0  0  0  0  0  0  0  0  0
    0.6360   12.3910   -1.3990 O   0  0  0  0  0  0  0  0  0  0  0  0
  1  2  1  0
  2  3  2  3
  2  4  1  0
  4  5  2  0
  4  6  1  0
  3  7  1  0
  5  8  1  0
  6  9  2  0
  7 10  2  0
  7 11  1  0
  8 12  2  0
  9 12  1  0
  8 13  1  0
 11 14  2  0
 10 15  1  0
 14 16  1  0
 15 17  1  0
 12 18  1  0
 13 19  2  0
 14 20  1  0
 15 20  2  0
 16 21  1  0
 18 22  2  0
 19 22  1  0
 21 23  1  0
 21 24  2  0
M  END
