mac-x0284-mac-x0455
     RDKit          3D

 19 20  0  0  0  0  0  0  0  0999 V2000
   -4.0820   15.6050    0.6760 C   0  0  0  0  0  0  0  0  0  0  0  0
   -3.5560   15.3650   -0.7080 C   0  0  0  0  0  0  0  0  0  0  0  0
   -4.3700   15.5460   -1.8250 C   0  0  0  0  0  0  0  0  0  0  0  0
   -2.2250   14.9610   -0.9050 C   0  0  0  0  0  0  0  0  0  0  0  0
   -1.6920   14.7410   -2.1940 C   0  0  0  0  0  0  0  0  0  0  0  0
   -3.8660   15.3300   -3.1060 C   0  0  0  0  0  0  0  0  0  0  0  0
   -0.2440   14.2910   -2.3450 C   0  0  0  0  0  0  0  0  0  0  0  0
   -2.5440   14.9390   -3.2850 C   0  0  0  0  0  0  0  0  0  0  0  0
   -2.0760   14.7390   -4.5570 O   0  0  0  0  0  0  0  0  0  0  0  0
    0.5250   14.6160   -1.2090 O   0  0  0  0  0  0  0  0  0  0  0  0
   -0.3520   12.8870   -2.5440 N   0  0  0  0  0  0  0  0  0  0  0  0
    0.4880   14.8110   -3.4060 O   0  0  0  0  0  0  0  0  0  0  0  0
   -1.5020   12.4370   -1.7750 C   0  0  0  0  0  0  0  0  0  0  0  0
   -0.5050   12.3810   -3.8600 C   0  0  0  0  0  0  0  0  0  0  0  0
   -1.7100   11.7140   -4.1540 C   0  0  0  0  0  0  0  0  0  0  0  0
    0.4570   12.4830   -4.8780 C   0  0  0  0  0  0  0  0  0  0  0  0
   -1.9480   11.1640   -5.4080 C   0  0  0  0  0  0  0  0  0  0  0  0
    0.2180   11.9300   -6.1390 C   0  0  0  0  0  0  0  0  0  0  0  0
   -0.9810   11.2680   -6.4010 C   0  0  0  0  0  0  0  0  0  0  0  0
  1  2  1  0
  2  3  2  0
  2  4  1  0
  4  5  2  0
  3  6  1  0
  5  7  1  0
  5  8  1  0
  6  8  2  0
  8  9  1  0
  7 10  1  0
  7 11  1  0
  7 12  1  0
 11 13  1  0
 11 14  1  0
 14 15  2  0
 14 16  1  0
 15 17  1  0
 16 18  2  0
 17 19  2  0
 18 19  1  0
M  END
