mac-x0204-mac-x0360
     RDKit          3D

 24 25  0  0  0  0  0  0  0  0999 V2000
    0.7620   12.9080   -2.4940 O   0  0  0  0  0  0  0  0  0  0  0  0
    0.2000   14.2050   -2.5910 C   0  0  0  0  0  0  0  0  0  0  0  0
    1.2730   15.0780   -2.9180 O   0  0  0  0  0  0  0  0  0  0  0  0
   -0.2660   14.6390   -1.1890 C   0  0  0  0  0  0  0  0  0  0  0  0
   -0.8610   14.1690   -3.6950 C   0  0  0  0  0  0  0  0  0  0  0  0
   -1.4980   15.5380   -1.2180 C   0  0  0  0  0  0  0  0  0  0  0  0
   -1.3610   15.3160   -4.3380 C   0  0  0  0  0  0  0  0  0  0  0  0
   -1.4040   12.9500   -4.1270 C   0  0  0  0  0  0  0  0  0  0  0  0
   -2.7100   14.7400   -1.4480 N   0  0  0  0  0  0  0  0  0  0  0  0
   -2.3350   15.2010   -5.3330 C   0  0  0  0  0  0  0  0  0  0  0  0
   -2.3500   12.8100   -5.0940 N   0  0  0  0  0  0  0  0  0  0  0  0
   -2.8440   16.2880   -5.9810 O   0  0  0  0  0  0  0  0  0  0  0  0
   -3.8620   14.8200   -0.2300 S   0  0  0  0  0  0  0  0  0  0  0  0
   -2.7940   13.9430   -5.6740 C   0  0  0  0  0  0  0  0  0  0  0  0
   -4.7790   15.8780   -0.5790 O   0  0  0  0  0  0  0  0  0  0  0  0
   -3.1260   14.8180    1.0110 O   0  0  0  0  0  0  0  0  0  0  0  0
   -4.7560   13.2780   -0.3440 C   0  0  0  0  0  0  0  0  0  0  0  0
   -4.4820   12.3540   -1.3640 C   0  0  0  0  0  0  0  0  0  0  0  0
   -5.7430   13.0150    0.6090 C   0  0  0  0  0  0  0  0  0  0  0  0
   -5.2220   11.1670   -1.4130 C   0  0  0  0  0  0  0  0  0  0  0  0
   -6.4640   11.8290    0.5370 C   0  0  0  0  0  0  0  0  0  0  0  0
   -7.6810   11.5050    1.7100 Cl  0  0  0  0  0  0  0  0  0  0  0  0
   -4.9160   10.0050   -2.6470 Cl  0  0  0  0  0  0  0  0  0  0  0  0
   -6.2120   10.9040   -0.4680 C   0  0  0  0  0  0  0  0  0  0  0  0
  2  1  1  0
  2  3  1  0
  2  4  1  0
  2  5  1  0
  4  6  1  0
  5  7  2  0
  5  8  1  0
  6  9  1  0
  7 10  1  0
  8 11  2  0
 10 12  1  0
 13  9  1  0
 10 14  2  0
 11 14  1  0
 13 15  2  0
 13 16  2  0
 13 17  1  0
 17 18  2  0
 17 19  1  0
 18 20  1  0
 19 21  2  0
 21 22  1  0
 20 23  1  0
 20 24  2  0
 21 24  1  0
M  END
