mac-x0138-diamond-x0962_1_A
     RDKit          3D

 18 20  0  0  0  0  0  0  0  0999 V2000
   -1.1050   14.7170   -3.4640 C   0  0  0  0  0  0  0  0  0  0  0  0
   -1.8820   15.3760   -2.4210 N   0  0  0  0  0  0  0  0  0  0  0  0
   -3.3220   15.3820   -2.7440 C   0  0  0  0  0  0  0  0  0  0  0  0
   -1.9260   14.6320   -1.1620 C   0  0  2  0  0  0  0  0  0  0  0  0
   -4.0140   15.5230   -1.4580 N   0  0  0  0  0  0  0  0  0  0  0  0
   -2.9300   15.5530   -0.4770 C   0  0  1  0  0  0  0  0  0  0  0  0
   -0.6460   14.5560   -0.4920 N   0  0  0  0  0  0  0  0  0  0  0  0
   -3.1210   15.0970    0.9810 C   0  0  1  0  0  0  0  0  0  0  0  0
   -0.7290   15.0720    0.8440 C   0  0  2  0  0  0  0  0  0  0  0  0
   -4.9580   14.4550   -1.2250 C   0  0  0  0  0  0  0  0  0  0  0  0
   -3.9790   13.9570    1.1480 N   0  0  0  0  0  0  0  0  0  0  0  0
    0.2490   14.3600    1.5520 N   0  0  0  0  0  0  0  0  0  0  0  0
   -1.8840   14.6650    1.5570 N   0  0  0  0  0  0  0  0  0  0  0  0
   -5.9780   14.5560   -0.1450 C   0  0  0  0  0  0  0  0  0  0  0  0
   -5.7590   14.6370    1.2110 N   0  0  0  0  0  0  0  0  0  0  0  0
   -7.3460   14.5790   -0.2620 C   0  0  0  0  0  0  0  0  0  0  0  0
   -6.9660   14.6940    1.8340 C   0  0  0  0  0  0  0  0  0  0  0  0
   -7.9520   14.6620    0.9630 N   0  0  0  0  0  0  0  0  0  0  0  0
  1  2  1  0
  2  3  1  0
  2  4  1  0
  3  5  1  0
  4  6  1  0
  6  5  1  6
  4  7  1  1
  6  8  1  0
  7  9  1  0
  5 10  1  0
  8 11  1  6
  9 12  1  1
  8 13  1  0
  9 13  1  0
 10 14  1  0
 14 15  1  0
 14 16  2  0
 15 17  1  0
 16 18  1  0
 17 18  2  0
M  END
