mac-x0546-diamond-x0711_0_A
     RDKit          3D

 27 29  0  0  0  0  0  0  0  0999 V2000
   -4.2740   15.3430   -5.9730 C   0  0  0  0  0  0  0  0  0  0  0  0
   -3.6010   16.5020   -5.4730 O   0  0  0  0  0  0  0  0  0  0  0  0
   -2.2690   16.3320   -5.4880 C   0  0  0  0  0  0  0  0  0  0  0  0
   -1.7730   15.1700   -5.0950 C   0  0  0  0  0  0  0  0  0  0  0  0
   -1.4320   17.4310   -5.9720 C   0  0  0  0  0  0  0  0  0  0  0  0
   -0.3270   14.9550   -5.1830 C   0  0  1  0  0  0  0  0  0  0  0  0
   -0.0850   17.4270   -5.8540 C   0  0  0  0  0  0  0  0  0  0  0  0
    0.4540   16.2400   -5.1720 C   0  0  0  0  0  0  0  0  0  0  0  0
    0.4530   14.2750   -4.1660 C   0  0  0  0  0  0  0  0  0  0  0  0
   -0.0540   13.0470   -3.5600 C   0  0  1  0  0  0  0  0  0  0  0  0
    1.5660   16.1760   -4.5500 N   0  0  0  0  0  0  0  0  0  0  0  0
    1.5540   14.9690   -3.9180 C   0  0  0  0  0  0  0  0  0  0  0  0
    0.8610   12.0010   -3.0220 C   0  0  0  0  0  0  0  0  0  0  0  0
   -0.5720   13.8650   -2.0250 S   0  0  0  0  0  0  0  0  0  0  0  0
    1.9260   12.2370   -2.5050 O   0  0  0  0  0  0  0  0  0  0  0  0
    0.3900   10.7380   -3.0990 O   0  0  0  0  0  0  0  0  0  0  0  0
   -1.8720   14.7850   -2.5970 N   0  0  0  0  0  0  0  0  0  0  0  0
    0.5080   14.8790   -1.8360 O   0  0  0  0  0  0  0  0  0  0  0  0
   -3.0620   14.7890   -1.8760 C   0  0  0  0  0  0  0  0  0  0  0  0
   -4.2960   15.0830   -2.4410 C   0  0  0  0  0  0  0  0  0  0  0  0
   -3.0020   14.4730   -0.5100 C   0  0  0  0  0  0  0  0  0  0  0  0
   -5.4560   15.0540   -1.6700 C   0  0  0  0  0  0  0  0  0  0  0  0
   -4.1580   14.4400    0.2730 C   0  0  0  0  0  0  0  0  0  0  0  0
   -5.3910   14.7270   -0.3150 C   0  0  0  0  0  0  0  0  0  0  0  0
   -6.6200   14.6730    0.5150 C   0  0  0  0  0  0  0  0  0  0  0  0
   -6.5120   14.7150    1.8800 N   0  0  0  0  0  0  0  0  0  0  0  0
   -7.7210   14.5990   -0.0150 O   0  0  0  0  0  0  0  0  0  0  0  0
  1  2  1  0
  2  3  1  0
  3  4  2  0
  3  5  1  0
  6  4  1  1
  5  7  2  0
  6  8  1  0
  7  8  1  0
  6  9  1  0
  9 10  1  0
  8 11  2  0
  9 12  2  0
 11 12  1  0
 10 13  1  1
 10 14  1  0
 13 15  2  0
 13 16  1  0
 14 17  1  6
 14 18  2  0
 17 19  1  0
 19 20  2  0
 19 21  1  0
 20 22  1  0
 21 23  2  0
 22 24  2  0
 23 24  1  0
 24 25  1  0
 25 26  1  0
 25 27  2  0
M  END
