mac-x0124-mac-x0301
     RDKit          3D

 13 14  0  0  0  0  0  0  0  0999 V2000
   -0.5460   14.5590   -3.3940 C   0  0  0  0  0  0  0  0  0  0  0  0
    0.7070   14.6600   -2.9240 O   0  0  0  0  0  0  0  0  0  0  0  0
   -0.7950   14.3190   -4.5590 O   0  0  0  0  0  0  0  0  0  0  0  0
   -1.5300   14.7400   -2.4140 N   0  0  0  0  0  0  0  0  0  0  0  0
   -2.8720   14.9750   -2.6840 C   0  0  0  0  0  0  0  0  0  0  0  0
   -1.3770   14.7230   -1.0260 C   0  0  0  0  0  0  0  0  0  0  0  0
   -3.5610   15.1050   -1.5070 C   0  0  0  0  0  0  0  0  0  0  0  0
   -2.6310   14.9450   -0.4540 C   0  0  0  0  0  0  0  0  0  0  0  0
   -0.2400   14.5330   -0.3340 N   0  0  0  0  0  0  0  0  0  0  0  0
   -2.7050   14.9680    0.9410 C   0  0  0  0  0  0  0  0  0  0  0  0
   -0.4370   14.5700    0.9970 C   0  0  0  0  0  0  0  0  0  0  0  0
   -3.9000   15.1980    1.6060 N   0  0  0  0  0  0  0  0  0  0  0  0
   -1.5870   14.7660    1.6600 N   0  0  0  0  0  0  0  0  0  0  0  0
  1  2  1  0
  1  3  2  0
  1  4  1  0
  4  5  1  0
  4  6  1  0
  5  7  2  0
  6  8  2  0
  7  8  1  0
  6  9  1  0
  8 10  1  0
  9 11  2  0
 10 12  1  0
 10 13  2  0
 11 13  1  0
M  END
