mac-x0306-diamond-x0969_0_A
     RDKit          3D

 11 12  0  0  0  0  0  0  0  0999 V2000
   -8.6640   14.6200    1.0680 C   0  0  0  0  0  0  0  0  0  0  0  0
   -7.9320   14.4620    2.2140 C   0  0  0  0  0  0  0  0  0  0  0  0
   -6.6300   14.5390    1.8200 N   0  0  0  0  0  0  0  0  0  0  0  0
   -7.8350   14.7920   -0.0050 N   0  0  0  0  0  0  0  0  0  0  0  0
   -6.5970   14.7440    0.4550 C   0  0  0  0  0  0  0  0  0  0  0  0
   -5.3950   14.8900   -0.3760 C   0  0  0  0  0  0  0  0  0  0  0  0
   -5.4590   15.1310   -1.7510 C   0  0  0  0  0  0  0  0  0  0  0  0
   -4.1330   14.7830    0.2150 C   0  0  0  0  0  0  0  0  0  0  0  0
   -4.2780   15.2440   -2.4640 C   0  0  0  0  0  0  0  0  0  0  0  0
   -3.0090   14.9120   -0.5810 C   0  0  0  0  0  0  0  0  0  0  0  0
   -3.0560   15.1390   -1.9120 N   0  0  0  0  0  0  0  0  0  0  0  0
  1  2  2  0
  2  3  1  0
  1  4  1  0
  3  5  1  0
  4  5  2  0
  5  6  1  0
  6  7  2  0
  6  8  1  0
  7  9  1  0
  8 10  2  0
  9 11  2  0
 10 11  1  0
M  END
