mac-x0360-mac-x0527
     RDKit          3D

 27 29  0  0  0  0  0  0  0  0999 V2000
   -7.3840   11.9080    1.5580 Cl  0  0  0  0  0  0  0  0  0  0  0  0
   -6.2920   11.6630    0.2480 C   0  0  0  0  0  0  0  0  0  0  0  0
   -6.5900   10.6870   -0.6990 C   0  0  0  0  0  0  0  0  0  0  0  0
   -5.1210   12.4250    0.1330 C   0  0  0  0  0  0  0  0  0  0  0  0
   -4.2570   12.1820   -0.9570 C   0  0  0  0  0  0  0  0  0  0  0  0
   -5.7160   10.4730   -1.7610 C   0  0  0  0  0  0  0  0  0  0  0  0
   -6.0600    9.2710   -2.9330 Cl  0  0  0  0  0  0  0  0  0  0  0  0
   -2.7370   13.0730   -1.2110 S   0  0  0  0  0  0  0  0  0  0  0  0
   -4.5580   11.2130   -1.8950 C   0  0  0  0  0  0  0  0  0  0  0  0
   -2.9870   14.5190   -2.2440 N   0  0  2  0  0  0  0  0  0  0  0  0
   -2.4810   13.6040    0.1140 O   0  0  0  0  0  0  0  0  0  0  0  0
   -1.7540   12.2160   -1.8050 O   0  0  0  0  0  0  0  0  0  0  0  0
   -3.7960   14.3400   -3.3540 O   0  0  0  0  0  0  0  0  0  0  0  0
   -1.7320   15.1660   -2.7630 N   0  0  0  0  0  0  0  0  0  0  0  0
   -3.7380   14.9380   -1.0300 C   0  0  0  0  0  0  0  0  0  0  0  0
   -1.4060   15.0120   -4.1790 C   0  0  0  0  0  0  0  0  0  0  0  0
   -5.1170   15.0360   -1.0400 C   0  0  0  0  0  0  0  0  0  0  0  0
   -3.0140   15.1440    0.1070 N   0  0  0  0  0  0  0  0  0  0  0  0
   -1.1200   13.5960   -4.6840 C   0  0  0  0  0  0  0  0  0  0  0  0
   -5.8140   15.3060    0.0770 N   0  0  0  0  0  0  0  0  0  0  0  0
   -3.7110   15.4010    1.2070 C   0  0  0  0  0  0  0  0  0  0  0  0
   -1.9410   12.5010   -4.3560 C   0  0  0  0  0  0  0  0  0  0  0  0
   -0.0020   13.3580   -5.5150 C   0  0  0  0  0  0  0  0  0  0  0  0
   -5.0700   15.4700    1.1990 C   0  0  0  0  0  0  0  0  0  0  0  0
   -1.6580   11.2170   -4.8390 C   0  0  0  0  0  0  0  0  0  0  0  0
    0.2760   12.0750   -5.9960 C   0  0  0  0  0  0  0  0  0  0  0  0
   -0.5500   11.0080   -5.6590 C   0  0  0  0  0  0  0  0  0  0  0  0
  1  2  1  0
  2  3  2  0
  2  4  1  0
  4  5  2  0
  3  6  1  0
  6  7  1  0
  8  5  1  0
  5  9  1  0
  6  9  2  0
  8 10  1  0
  8 11  2  0
  8 12  2  0
 10 13  1  6
 10 14  1  0
 10 15  1  0
 14 16  1  0
 15 17  2  0
 15 18  1  0
 16 19  1  0
 17 20  1  0
 18 21  2  0
 19 22  2  0
 19 23  1  0
 20 24  2  0
 21 24  1  0
 22 25  1  0
 23 26  2  0
 25 27  2  0
 26 27  1  0
M  CHG  2  10   1  13  -1
M  END
