mac-x0527-mac-x0305
     RDKit          3D

 18 19  0  0  0  0  0  0  0  0999 V2000
   -3.5110   15.2500   -3.5170 O   0  0  0  0  0  0  0  0  0  0  0  0
   -2.8270   14.9090   -2.5390 C   0  0  0  0  0  0  0  0  0  0  0  0
   -1.4410   14.7580   -2.6860 N   0  0  0  0  0  0  0  0  0  0  0  0
   -3.5780   14.6690   -1.2060 C   0  0  2  0  0  0  0  0  0  0  0  0
   -0.8070   14.8530   -4.0120 C   0  0  0  0  0  0  0  0  0  0  0  0
   -0.6520   14.0460   -1.7270 O   0  0  0  0  0  0  0  0  0  0  0  0
   -5.0030   15.2810   -1.2570 C   0  0  0  0  0  0  0  0  0  0  0  0
   -2.9320   14.9960    0.0920 N   0  0  0  0  0  0  0  0  0  0  0  0
   -1.5780   14.6890    0.2420 O   0  0  0  0  0  0  0  0  0  0  0  0
   -0.8150   13.5500   -4.7960 C   0  0  0  0  0  0  0  0  0  0  0  0
   -5.7710   14.9950   -0.0260 N   0  0  0  0  0  0  0  0  0  0  0  0
   -3.7220   15.0170    1.2220 C   0  0  0  0  0  0  0  0  0  0  0  0
   -2.0070   12.8620   -5.0400 C   0  0  0  0  0  0  0  0  0  0  0  0
    0.3760   13.0040   -5.2950 C   0  0  0  0  0  0  0  0  0  0  0  0
   -5.0620   15.0150    1.1680 C   0  0  0  0  0  0  0  0  0  0  0  0
   -2.0190   11.6540   -5.7420 C   0  0  0  0  0  0  0  0  0  0  0  0
    0.3650   11.8010   -6.0060 C   0  0  0  0  0  0  0  0  0  0  0  0
   -0.8300   11.1220   -6.2240 C   0  0  0  0  0  0  0  0  0  0  0  0
  1  2  2  0
  2  3  1  0
  4  2  1  6
  3  5  1  0
  3  6  1  0
  4  7  1  0
  4  8  1  0
  8  9  1  0
  5 10  1  0
  7 11  1  0
  8 12  1  0
 10 13  2  0
 10 14  1  0
 11 15  1  0
 12 15  2  0
 13 16  1  0
 14 17  2  0
 16 18  2  0
 17 18  1  0
M  END
