mac-x0188-diamond-x0962_0_A
     RDKit          3D

 21 23  0  0  0  0  0  0  0  0999 V2000
    1.2090   12.9260   -5.3320 C   0  0  0  0  0  0  0  0  0  0  0  0
   -0.0460   13.3110   -4.6480 C   0  0  0  0  0  0  0  0  0  0  0  0
   -1.1880   13.2640   -5.3780 O   0  0  0  0  0  0  0  0  0  0  0  0
   -0.3320   13.7320   -3.3710 C   0  0  0  0  0  0  0  0  0  0  0  0
    0.6530   13.8990   -2.3290 C   0  0  0  0  0  0  0  0  0  0  0  0
   -2.2590   13.6550   -4.5970 N   0  0  0  0  0  0  0  0  0  0  0  0
   -1.7460   13.9410   -3.3880 C   0  0  0  0  0  0  0  0  0  0  0  0
    1.3100   14.9160   -2.1610 O   0  0  0  0  0  0  0  0  0  0  0  0
    0.8220   12.8340   -1.5150 O   0  0  0  0  0  0  0  0  0  0  0  0
   -2.5880   14.4440   -2.2170 C   0  0  1  0  0  0  0  0  0  0  0  0
   -3.6690   15.4480   -2.5480 C   0  0  0  0  0  0  0  0  0  0  0  0
   -3.2080   13.5380   -1.0910 C   0  0  2  0  0  0  0  0  0  0  0  0
   -1.5190   15.1000   -1.4700 N   0  0  0  0  0  0  0  0  0  0  0  0
   -4.9690   15.1190   -2.4970 C   0  0  0  0  0  0  0  0  0  0  0  0
   -4.5010   12.9780   -1.5130 C   0  0  0  0  0  0  0  0  0  0  0  0
   -3.8000   14.3140    0.0350 C   0  0  0  0  0  0  0  0  0  0  0  0
   -5.3400   13.7760   -2.1710 C   0  0  0  0  0  0  0  0  0  0  0  0
   -3.1850   14.9120    1.0980 N   0  0  0  0  0  0  0  0  0  0  0  0
   -5.1410   14.5690    0.2040 C   0  0  0  0  0  0  0  0  0  0  0  0
   -4.1910   15.4790    1.8420 C   0  0  0  0  0  0  0  0  0  0  0  0
   -5.3670   15.2770    1.3140 N   0  0  0  0  0  0  0  0  0  0  0  0
  1  2  1  0
  2  3  1  0
  2  4  2  0
  4  5  1  0
  3  6  1  0
  4  7  1  0
  6  7  2  0
  5  8  2  0
  5  9  1  0
  7 10  1  0
 10 11  1  0
 10 12  1  0
 10 13  1  1
 11 14  2  0
 12 15  1  0
 12 16  1  1
 14 17  1  0
 15 17  2  0
 16 18  1  0
 16 19  2  0
 18 20  1  0
 19 21  1  0
 20 21  2  0
M  END
