mac-x0123-mac-x0328
     RDKit          3D

 17 19  0  0  0  0  0  0  0  0999 V2000
   -3.5420   14.5630    1.8040 N   0  0  0  0  0  0  0  0  0  0  0  0
   -4.7610   14.9300    1.0910 C   0  0  2  0  0  0  0  0  0  0  0  0
   -6.0320   14.1530    1.4770 C   0  0  2  0  0  0  0  0  0  0  0  0
   -4.5080   14.6620   -0.2920 N   0  0  0  0  0  0  0  0  0  0  0  0
   -5.4490   15.2790   -1.1810 C   0  0  2  0  0  0  0  0  0  0  0  0
   -7.0170   14.0340    0.2640 C   0  0  2  0  0  0  0  0  0  0  0  0
   -6.8850   14.7260    2.5650 C   0  0  0  0  0  0  0  0  0  0  0  0
   -3.2360   15.1800   -0.7850 N   0  0  0  0  0  0  0  0  0  0  0  0
   -6.8130   14.8610   -0.9470 N   0  0  0  0  0  0  0  0  0  0  0  0
   -8.4280   14.2750    0.8520 C   0  0  0  0  0  0  0  0  0  0  0  0
   -8.1750   14.7800    2.2290 C   0  0  0  0  0  0  0  0  0  0  0  0
   -4.9040   14.8110   -2.4290 N   0  0  0  0  0  0  0  0  0  0  0  0
   -3.4790   15.2470   -2.2310 C   0  0  2  0  0  0  0  0  0  0  0  0
   -2.2850   14.5040   -2.8640 C   0  0  0  0  0  0  0  0  0  0  0  0
   -5.1080   13.4020   -2.1950 O   0  0  0  0  0  0  0  0  0  0  0  0
   -2.2940   14.3790   -4.2090 O   0  0  0  0  0  0  0  0  0  0  0  0
   -1.3230   14.0600   -2.2400 O   0  0  0  0  0  0  0  0  0  0  0  0
  2  1  1  1
  2  3  1  0
  2  4  1  0
  4  5  1  0
  3  6  1  0
  3  7  1  1
  4  8  1  0
  5  9  1  1
  6  9  1  0
  6 10  1  1
  7 11  2  0
 10 11  1  0
  5 12  1  0
  8 13  1  0
 12 13  1  0
 13 14  1  6
 12 15  1  0
 14 16  1  0
 14 17  2  0
M  END
