mac-x0588-diamond-x0969_0_A
     RDKit          3D

 21 24  0  0  0  0  0  0  0  0999 V2000
   -4.2600   15.8800    1.5940 N   0  0  0  0  0  0  0  0  0  0  0  0
   -3.6080   15.6120    0.2680 C   0  0  1  0  0  0  0  0  0  0  0  0
   -2.2490   14.9050    0.3350 C   0  0  1  0  0  0  0  0  0  0  0  0
   -4.4890   14.8640   -0.7380 C   0  0  2  0  0  0  0  0  0  0  0  0
   -3.6580   14.4950   -2.0500 C   0  0  0  0  0  0  0  0  0  0  0  0
   -1.4940   15.1370   -0.9370 C   0  0  2  0  0  0  0  0  0  0  0  0
   -1.2810   15.3640    1.3260 N   0  0  0  0  0  0  0  0  0  0  0  0
   -5.8090   15.4990   -0.9980 N   0  0  0  0  0  0  0  0  0  0  0  0
   -4.8290   13.7680    0.1940 N   0  0  0  0  0  0  0  0  0  0  0  0
   -2.1440   14.6210   -2.1100 N   0  0  0  0  0  0  0  0  0  0  0  0
   -0.2640   14.4580   -0.5940 N   0  0  0  0  0  0  0  0  0  0  0  0
   -0.0500   14.7610    0.8150 C   0  0  0  0  0  0  0  0  0  0  0  0
   -6.0340   14.1110    0.5680 C   0  0  0  0  0  0  0  0  0  0  0  0
   -6.5940   15.1670   -0.0710 N   0  0  0  0  0  0  0  0  0  0  0  0
   -1.5420   14.9980   -3.4330 C   0  0  0  0  0  0  0  0  0  0  0  0
   -6.6840   13.4470    1.5550 N   0  0  0  0  0  0  0  0  0  0  0  0
   -0.7980   16.3590   -3.5970 C   0  0  2  0  0  0  0  0  0  0  0  0
   -1.6430   17.3640   -4.2370 O   0  0  0  0  0  0  0  0  0  0  0  0
    0.4330   16.2310   -4.5080 C   0  0  0  0  0  0  0  0  0  0  0  0
    0.5520   17.6090   -5.1090 C   0  0  0  0  0  0  0  0  0  0  0  0
   -0.8990   18.0030   -5.2820 C   0  0  0  0  0  0  0  0  0  0  0  0
  2  1  1  1
  2  3  1  0
  2  4  1  0
  4  5  1  6
  3  6  1  0
  3  7  1  1
  4  8  1  0
  4  9  1  0
  5 10  1  0
  6 10  1  0
  6 11  1  1
  7 12  1  0
 11 12  1  0
  9 13  2  0
  8 14  2  0
 13 14  1  0
 10 15  1  0
 13 16  1  0
 17 15  1  6
 17 18  1  0
 17 19  1  0
 19 20  1  0
 18 21  1  0
 20 21  1  0
M  END
