mac-x0337-mac-x0224
     RDKit          3D

 20 21  0  0  0  0  0  0  0  0999 V2000
   -5.5540    9.3050   -2.1750 C   0  0  0  0  0  0  0  0  0  0  0  0
   -5.2720   10.7160   -1.7590 C   0  0  0  0  0  0  0  0  0  0  0  0
   -6.0990   11.3720   -0.9160 C   0  0  0  0  0  0  0  0  0  0  0  0
   -4.1650   11.3230   -2.2500 C   0  0  0  0  0  0  0  0  0  0  0  0
   -3.9060   12.5950   -1.8950 C   0  0  0  0  0  0  0  0  0  0  0  0
   -5.8030   12.6560   -0.5800 C   0  0  0  0  0  0  0  0  0  0  0  0
   -4.7100   13.3810   -1.0270 C   0  0  0  0  0  0  0  0  0  0  0  0
   -4.4160   15.0450   -0.5650 S   0  0  0  0  0  0  0  0  0  0  0  0
   -3.4030   14.7300    0.5010 O   0  0  0  0  0  0  0  0  0  0  0  0
   -6.0180   15.3410   -0.3360 N   0  0  0  0  0  0  0  0  0  0  0  0
   -3.8820   15.1650   -2.2200 C   0  0  0  0  0  0  0  0  0  0  0  0
   -2.9440   14.8060   -1.2280 C   0  0  0  0  0  0  0  0  0  0  0  0
   -3.1250   15.1520   -3.3520 C   0  0  0  0  0  0  0  0  0  0  0  0
   -1.6250   14.4980   -1.2600 C   0  0  0  0  0  0  0  0  0  0  0  0
   -1.7750   14.8450   -3.4780 C   0  0  0  0  0  0  0  0  0  0  0  0
   -1.1630   14.8740   -4.7190 O   0  0  0  0  0  0  0  0  0  0  0  0
   -1.0130   14.5110   -2.4100 C   0  0  0  0  0  0  0  0  0  0  0  0
    0.3970   14.1910   -2.5720 C   0  0  0  0  0  0  0  0  0  0  0  0
    1.1550   14.3120   -1.5880 O   0  0  0  0  0  0  0  0  0  0  0  0
    0.9430   13.7480   -3.7500 O   0  0  0  0  0  0  0  0  0  0  0  0
  1  2  1  0
  2  3  2  0
  2  4  1  0
  4  5  2  0
  3  6  1  0
  5  7  1  0
  6  7  2  0
  7  8  1  0
  8  9  2  0
  8 10  1  0
  8 11  1  0
 11 12  2  0
 11 13  1  0
 12 14  1  0
 13 15  2  0
 15 16  1  0
 14 17  2  0
 15 17  1  0
 17 18  1  0
 18 19  2  0
 18 20  1  0
M  END
