mac-x0231-mac-x0402
     RDKit          3D

 26 29  0  0  0  0  0  0  0  0999 V2000
    1.0610   10.7040   -3.2690 O   0  0  0  0  0  0  0  0  0  0  0  0
    1.6360   11.9090   -3.2460 C   0  0  0  0  0  0  0  0  0  0  0  0
    1.7070   12.5060   -2.1860 O   0  0  0  0  0  0  0  0  0  0  0  0
    2.1020   12.4230   -4.5820 C   0  0  0  0  0  0  0  0  0  0  0  0
    1.4950   13.7750   -4.6070 C   0  0  0  0  0  0  0  0  0  0  0  0
    0.0400   13.8200   -4.7000 C   0  0  0  0  0  0  0  0  0  0  0  0
    2.2510   14.7960   -4.4090 N   0  0  0  0  0  0  0  0  0  0  0  0
   -0.5580   14.9970   -4.3290 C   0  0  0  0  0  0  0  0  0  0  0  0
    1.6510   15.9850   -4.3100 N   0  0  0  0  0  0  0  0  0  0  0  0
   -0.7100   12.7020   -5.1050 C   0  0  0  0  0  0  0  0  0  0  0  0
    0.3260   16.1630   -3.9950 C   0  0  0  0  0  0  0  0  0  0  0  0
   -1.9400   14.9990   -4.2860 C   0  0  0  0  0  0  0  0  0  0  0  0
   -2.0940   12.7490   -5.1130 C   0  0  0  0  0  0  0  0  0  0  0  0
   -0.0510   17.2360   -3.5430 O   0  0  0  0  0  0  0  0  0  0  0  0
   -2.7000   16.1170   -3.7980 C   0  0  0  0  0  0  0  0  0  0  0  0
   -2.7060   13.9000   -4.6860 C   0  0  0  0  0  0  0  0  0  0  0  0
   -3.5750   15.7120   -2.5960 C   0  0  0  0  0  0  0  0  0  0  0  0
   -4.8390   15.2410   -2.8970 C   0  0  0  0  0  0  0  0  0  0  0  0
   -3.1910   15.8090   -1.2170 C   0  0  0  0  0  0  0  0  0  0  0  0
   -4.1530   15.4640   -0.2270 C   0  0  0  0  0  0  0  0  0  0  0  0
   -5.7550   14.9040   -1.9280 C   0  0  0  0  0  0  0  0  0  0  0  0
   -5.4250   15.0270   -0.5860 C   0  0  0  0  0  0  0  0  0  0  0  0
   -4.0860   15.4840    1.5030 S   0  0  0  0  0  0  0  0  0  0  0  0
   -5.7340   14.9720    1.5620 C   0  0  0  0  0  0  0  0  0  0  0  0
   -6.2940   14.7500    0.4270 N   0  0  0  0  0  0  0  0  0  0  0  0
   -6.4420   14.8210    2.6810 N   0  0  0  0  0  0  0  0  0  0  0  0
  1  2  1  0
  2  3  2  0
  2  4  1  0
  4  5  1  0
  5  6  1  0
  5  7  2  0
  6  8  2  0
  7  9  1  0
  6 10  1  0
  8 11  1  0
  9 11  1  0
  8 12  1  0
 10 13  2  0
 11 14  2  0
 12 15  1  0
 12 16  2  0
 13 16  1  0
 15 17  1  0
 17 18  2  0
 17 19  1  0
 19 20  2  0
 18 21  1  0
 20 22  1  0
 21 22  2  0
 20 23  1  0
 23 24  1  0
 22 25  1  0
 24 25  2  0
 24 26  1  0
M  END
