mac-x0124-mac-x0564
     RDKit          3D

 20 23  0  0  0  0  0  0  0  0999 V2000
   -0.5260   16.1520   -2.8050 C   0  0  0  0  0  0  0  0  0  0  0  0
   -0.9260   14.7980   -2.2460 C   0  0  2  0  0  0  0  0  0  0  0  0
   -2.2940   14.3870   -2.7010 C   0  0  0  0  0  0  0  0  0  0  0  0
   -1.0930   14.8220   -0.7930 C   0  0  0  0  0  0  0  0  0  0  0  0
    0.0400   13.8020   -2.7360 C   0  0  0  0  0  0  0  0  0  0  0  0
    0.8000   13.1740   -2.0090 O   0  0  0  0  0  0  0  0  0  0  0  0
   -3.3490   14.6870   -1.5670 C   0  0  0  0  0  0  0  0  0  0  0  0
   -2.4140   14.7880   -0.3960 C   0  0  0  0  0  0  0  0  0  0  0  0
   -0.0420   14.8580   -0.0120 N   0  0  0  0  0  0  0  0  0  0  0  0
   -2.4080   13.9060   -3.9070 N   0  0  0  0  0  0  0  0  0  0  0  0
   -0.0220   13.7070   -4.0970 N   0  0  0  0  0  0  0  0  0  0  0  0
   -2.6370   14.8180    0.9560 C   0  0  0  0  0  0  0  0  0  0  0  0
   -0.3550   14.8490    1.2680 C   0  0  0  0  0  0  0  0  0  0  0  0
   -1.2130   13.7740   -4.6200 C   0  0  0  0  0  0  0  0  0  0  0  0
   -4.1350   15.7690   -2.1240 C   0  0  0  0  0  0  0  0  0  0  0  0
   -4.4780   13.7970   -1.0900 C   0  0  0  0  0  0  0  0  0  0  0  0
   -3.9220   14.8180    1.5030 N   0  0  0  0  0  0  0  0  0  0  0  0
   -1.5970   14.8330    1.7970 N   0  0  0  0  0  0  0  0  0  0  0  0
   -5.4590   15.5960   -1.9580 C   0  0  0  0  0  0  0  0  0  0  0  0
   -5.6660   14.3670   -1.3010 C   0  0  0  0  0  0  0  0  0  0  0  0
  2  1  1  6
  2  3  1  0
  2  4  1  0
  2  5  1  0
  5  6  2  0
  3  7  1  0
  4  8  2  0
  7  8  1  0
  4  9  1  0
  3 10  2  0
  5 11  1  0
  8 12  1  0
  9 13  2  0
 10 14  1  0
 11 14  2  0
  7 15  1  0
  7 16  1  0
 12 17  1  0
 12 18  2  0
 13 18  1  0
 15 19  2  0
 16 20  2  0
 19 20  1  0
M  END
