mac-x0398-mac-x0283
     RDKit          3D

 14 15  0  0  0  0  0  0  0  0999 V2000
   -6.2270   15.1190    2.5580 N   0  0  0  0  0  0  0  0  0  0  0  0
   -6.1180   14.5150    1.2360 C   0  0  2  0  0  0  0  0  0  0  0  0
   -5.1330   15.2930    0.3250 C   0  0  2  0  0  0  0  0  0  0  0  0
   -7.5520   14.4260    0.7170 C   0  0  0  0  0  0  0  0  0  0  0  0
   -5.3540   14.9660   -1.1670 C   0  0  1  0  0  0  0  0  0  0  0  0
   -3.6880   15.0310    0.6090 C   0  0  0  0  0  0  0  0  0  0  0  0
   -7.6450   14.5230   -0.7310 N   0  0  0  0  0  0  0  0  0  0  0  0
   -5.8420   16.0640   -1.9030 O   0  0  0  0  0  0  0  0  0  0  0  0
   -4.0140   14.3510   -1.6300 C   0  0  2  0  0  0  0  0  0  0  0  0
   -3.0880   14.5260   -0.4490 C   0  0  0  0  0  0  0  0  0  0  0  0
   -6.3920   13.9690   -1.2410 O   0  0  0  0  0  0  0  0  0  0  0  0
   -3.4360   14.9480   -2.8860 C   0  0  0  0  0  0  0  0  0  0  0  0
   -4.0750   15.3040   -3.8610 O   0  0  0  0  0  0  0  0  0  0  0  0
   -2.0930   15.0610   -2.8770 O   0  0  0  0  0  0  0  0  0  0  0  0
  2  1  1  1
  2  3  1  0
  2  4  1  0
  3  5  1  0
  3  6  1  1
  4  7  1  0
  5  8  1  6
  5  9  1  0
  6 10  2  0
  9 10  1  0
  5 11  1  0
  7 11  1  0
  9 12  1  6
 12 13  2  0
 12 14  1  0
M  END
