mac-x1493-diamond-x1015_0_A
     RDKit          3D

 26 30  0  0  0  0  0  0  0  0999 V2000
   -1.1960   14.1300   -1.4620 N   0  0  0  0  0  0  0  0  0  0  0  0
   -2.2600   14.3980   -2.2980 C   0  0  0  0  0  0  0  0  0  0  0  0
   -2.0630   14.3330   -3.5990 N   0  0  0  0  0  0  0  0  0  0  0  0
   -0.3170   13.7720   -2.3080 C   0  0  0  0  0  0  0  0  0  0  0  0
   -3.5770   14.5790   -1.6600 C   0  0  0  0  0  0  0  0  0  0  0  0
   -0.6550   13.8950   -3.7390 C   0  0  1  0  0  0  0  0  0  0  0  0
    0.8670   13.2550   -2.1530 N   0  0  0  0  0  0  0  0  0  0  0  0
   -3.6730   14.6780   -0.2730 C   0  0  0  0  0  0  0  0  0  0  0  0
   -4.7450   14.6030   -2.3970 C   0  0  0  0  0  0  0  0  0  0  0  0
   -0.2120   12.5160   -3.9570 N   0  0  0  0  0  0  0  0  0  0  0  0
    0.4780   12.0970   -2.7840 C   0  0  0  0  0  0  0  0  0  0  0  0
    0.6780   10.9670   -2.3650 O   0  0  0  0  0  0  0  0  0  0  0  0
   -4.9360   14.7560    0.3210 C   0  0  0  0  0  0  0  0  0  0  0  0
   -5.9820   14.6870   -1.8460 N   0  0  0  0  0  0  0  0  0  0  0  0
   -0.5720   11.6590   -5.0330 C   0  0  0  0  0  0  0  0  0  0  0  0
   -6.0740   14.7460   -0.5070 C   0  0  0  0  0  0  0  0  0  0  0  0
   -5.0820   14.8260    1.7100 C   0  0  0  0  0  0  0  0  0  0  0  0
    0.0130   11.8060   -6.3020 C   0  0  0  0  0  0  0  0  0  0  0  0
   -1.5150   10.6300   -4.8670 C   0  0  0  0  0  0  0  0  0  0  0  0
   -7.3300   14.7870    0.0840 C   0  0  0  0  0  0  0  0  0  0  0  0
   -6.3550   14.8650    2.2800 C   0  0  0  0  0  0  0  0  0  0  0  0
   -0.3310   10.9590   -7.3650 C   0  0  0  0  0  0  0  0  0  0  0  0
   -1.8610    9.7800   -5.9260 C   0  0  0  0  0  0  0  0  0  0  0  0
   -7.4820   14.8390    1.4740 C   0  0  0  0  0  0  0  0  0  0  0  0
   -1.2690    9.9480   -7.1700 C   0  0  0  0  0  0  0  0  0  0  0  0
   -1.6960    8.9050   -8.4700 Cl  0  0  0  0  0  0  0  0  0  0  0  0
  1  2  1  0
  2  3  2  0
  1  4  2  0
  2  5  1  0
  6  3  1  1
  4  6  1  0
  4  7  1  0
  5  8  2  0
  5  9  1  0
  6 10  1  0
  7 11  1  0
 10 11  1  0
 11 12  2  0
  8 13  1  0
  9 14  2  0
 10 15  1  0
 13 16  2  0
 14 16  1  0
 13 17  1  0
 15 18  2  0
 15 19  1  0
 16 20  1  0
 17 21  2  0
 18 22  1  0
 19 23  2  0
 20 24  2  0
 21 24  1  0
 22 25  2  0
 23 25  1  0
 25 26  1  0
M  END
