mac-x0576-diamond-x0900_0_A
     RDKit          3D

 14 15  0  0  0  0  0  0  0  0999 V2000
    0.0830   14.1900    1.8160 N   0  0  0  0  0  0  0  0  0  0  0  0
   -0.9550   14.4180    1.0200 C   0  0  0  0  0  0  0  0  0  0  0  0
   -2.0710   14.5640    1.6060 N   0  0  0  0  0  0  0  0  0  0  0  0
   -0.7610   14.4660   -0.3330 N   0  0  0  0  0  0  0  0  0  0  0  0
   -1.7410   14.7490   -1.2520 C   0  0  0  0  0  0  0  0  0  0  0  0
   -3.1840   14.7560    0.8560 C   0  0  0  0  0  0  0  0  0  0  0  0
   -1.5340   14.8880   -2.4480 O   0  0  0  0  0  0  0  0  0  0  0  0
   -3.1190   14.8830   -0.6430 C   0  0  0  0  0  0  0  0  0  0  0  0
   -4.2790   14.7970    1.5140 N   0  0  0  0  0  0  0  0  0  0  0  0
   -5.4370   14.9510    0.8050 C   0  0  0  0  0  0  0  0  0  0  0  0
   -4.1600   15.0930   -1.3950 N   0  0  0  0  0  0  0  0  0  0  0  0
   -6.5400   14.9040    1.3320 O   0  0  0  0  0  0  0  0  0  0  0  0
   -5.3760   15.1730   -0.7360 C   0  0  0  0  0  0  0  0  0  0  0  0
   -6.4320   15.3920   -1.3130 O   0  0  0  0  0  0  0  0  0  0  0  0
  1  2  1  0
  2  3  2  0
  2  4  1  0
  4  5  1  0
  3  6  1  0
  5  7  2  0
  5  8  1  0
  6  8  1  0
  6  9  2  0
  9 10  1  0
  8 11  2  0
 10 12  2  0
 10 13  1  0
 11 13  1  0
 13 14  2  0
M  END
