mac-x0576-mac-x0204
     RDKit          3D

 24 26  0  0  0  0  0  0  0  0999 V2000
    0.1070   14.2550    2.1510 N   0  0  0  0  0  0  0  0  0  0  0  0
   -0.8510   14.2400    1.1090 C   0  0  1  0  0  0  0  0  0  0  0  0
   -2.0930   14.5120    1.7490 N   0  0  0  0  0  0  0  0  0  0  0  0
   -0.6210   15.0020   -0.0110 N   0  0  0  0  0  0  0  0  0  0  0  0
   -1.5500   14.8680   -0.9900 C   0  0  0  0  0  0  0  0  0  0  0  0
   -3.2030   14.2300    0.8570 C   0  0  2  0  0  0  0  0  0  0  0  0
   -1.2410   14.9590   -2.1950 N   0  0  0  0  0  0  0  0  0  0  0  0
   -3.0310   14.5990   -0.6440 C   0  0  1  0  0  0  0  0  0  0  0  0
   -4.3420   14.8620    1.4430 N   0  0  0  0  0  0  0  0  0  0  0  0
    0.1910   15.1990   -2.3950 C   0  0  0  0  0  0  0  0  0  0  0  0
   -5.4630   15.0250    0.6840 C   0  0  0  0  0  0  0  0  0  0  0  0
   -3.8580   15.7460   -1.0650 N   0  0  0  0  0  0  0  0  0  0  0  0
   -6.5750   14.8050    1.1630 O   0  0  0  0  0  0  0  0  0  0  0  0
    0.5900   14.1610   -3.3980 C   0  0  0  0  0  0  0  0  0  0  0  0
   -5.2650   15.4790   -0.7590 C   0  0  0  0  0  0  0  0  0  0  0  0
    0.8550   12.9180   -2.7440 O   0  0  0  0  0  0  0  0  0  0  0  0
    1.7790   14.6140   -3.9940 O   0  0  0  0  0  0  0  0  0  0  0  0
   -0.6250   14.0680   -4.2880 C   0  0  0  0  0  0  0  0  0  0  0  0
   -1.3200   15.2240   -4.6790 C   0  0  0  0  0  0  0  0  0  0  0  0
   -1.1200   12.8550   -4.7470 C   0  0  0  0  0  0  0  0  0  0  0  0
   -2.4460   15.1200   -5.4830 C   0  0  0  0  0  0  0  0  0  0  0  0
   -2.2200   12.7230   -5.5320 N   0  0  0  0  0  0  0  0  0  0  0  0
   -3.0940   16.2660   -5.8450 O   0  0  0  0  0  0  0  0  0  0  0  0
   -2.8600   13.8630   -5.8810 C   0  0  0  0  0  0  0  0  0  0  0  0
  2  1  1  1
  2  3  1  0
  2  4  1  0
  4  5  1  0
  6  3  1  1
  5  7  2  3
  5  8  1  0
  6  8  1  0
  6  9  1  0
  7 10  1  0
  9 11  1  0
  8 12  1  1
 11 13  2  0
 10 14  1  0
 11 15  1  0
 12 15  1  0
 14 16  1  0
 14 17  1  0
 14 18  1  0
 18 19  2  0
 18 20  1  0
 19 21  1  0
 20 22  2  0
 21 23  1  0
 21 24  2  0
 22 24  1  0
M  END
