mac-x0263-mac-x0306
     RDKit          3D

 14 15  0  0  0  0  0  0  0  0999 V2000
  -11.4900   14.3180    2.4740 O   0  0  0  0  0  0  0  0  0  0  0  0
  -10.8190   15.4450    2.7970 C   0  0  0  0  0  0  0  0  0  0  0  0
  -11.2280   16.2280    3.6380 O   0  0  0  0  0  0  0  0  0  0  0  0
   -9.5440   15.6290    2.0190 C   0  0  0  0  0  0  0  0  0  0  0  0
   -8.9500   14.3100    1.5290 C   0  0  0  0  0  0  0  0  0  0  0  0
   -7.6130   14.5580    0.9260 C   0  0  0  0  0  0  0  0  0  0  0  0
   -7.4560   14.8970   -0.3950 N   0  0  0  0  0  0  0  0  0  0  0  0
   -6.4560   14.5010    1.5360 N   0  0  0  0  0  0  0  0  0  0  0  0
   -6.1180   15.0700   -0.6310 C   0  0  0  0  0  0  0  0  0  0  0  0
   -5.5160   14.8150    0.5920 C   0  0  0  0  0  0  0  0  0  0  0  0
   -5.4060   15.4160   -1.7720 C   0  0  0  0  0  0  0  0  0  0  0  0
   -4.1260   14.9020    0.7100 C   0  0  0  0  0  0  0  0  0  0  0  0
   -4.0180   15.4980   -1.6440 C   0  0  0  0  0  0  0  0  0  0  0  0
   -3.3860   15.2440   -0.4230 C   0  0  0  0  0  0  0  0  0  0  0  0
  1  2  1  0
  2  3  2  0
  2  4  1  0
  4  5  1  0
  5  6  1  0
  6  7  1  0
  6  8  2  0
  7  9  1  0
  8 10  1  0
  9 10  2  0
  9 11  1  0
 10 12  1  0
 11 13  2  0
 12 14  2  0
 13 14  1  0
M  END
