mac-x0137-mac-x0584
     RDKit          3D

 20 23  0  0  0  0  0  0  0  0999 V2000
   -2.3330   12.7590   -4.3880 F   0  0  0  0  0  0  0  0  0  0  0  0
   -1.1370   12.6020   -5.0410 C   0  0  2  0  0  0  0  0  0  0  0  0
   -0.5360   11.2870   -4.6020 C   0  0  0  0  0  0  0  0  0  0  0  0
   -0.1540   13.7290   -4.7000 C   0  0  0  0  0  0  0  0  0  0  0  0
    0.0650   13.7870   -3.2480 N   0  0  0  0  0  0  0  0  0  0  0  0
   -0.0770   11.3330   -3.1420 C   0  0  0  0  0  0  0  0  0  0  0  0
    0.7560   12.5770   -2.8140 C   0  0  0  0  0  0  0  0  0  0  0  0
   -1.2730   13.8800   -2.6950 C   0  0  1  0  0  0  0  0  0  0  0  0
   -1.4290   14.9940   -1.6170 C   0  0  2  0  0  0  0  0  0  0  0  0
   -2.2560   14.3370   -3.7890 C   0  0  0  0  0  0  0  0  0  0  0  0
   -0.2180   14.9700   -0.7530 N   0  0  0  0  0  0  0  0  0  0  0  0
   -2.6520   15.1240   -0.8150 C   0  0  0  0  0  0  0  0  0  0  0  0
   -1.5010   16.1780   -2.6200 C   0  0  0  0  0  0  0  0  0  0  0  0
   -1.7310   15.7070   -4.0450 C   0  0  0  0  0  0  0  0  0  0  0  0
   -0.2970   14.9810    0.5480 C   0  0  0  0  0  0  0  0  0  0  0  0
   -2.5030   15.1100    0.6410 C   0  0  0  0  0  0  0  0  0  0  0  0
   -3.9390   15.2720   -1.0940 C   0  0  0  0  0  0  0  0  0  0  0  0
   -1.4240   15.0200    1.3170 N   0  0  0  0  0  0  0  0  0  0  0  0
   -3.7280   15.2260    1.2060 N   0  0  0  0  0  0  0  0  0  0  0  0
   -4.5480   15.3290    0.2160 C   0  0  0  0  0  0  0  0  0  0  0  0
  2  1  1  1
  2  3  1  0
  2  4  1  0
  4  5  1  0
  3  6  1  0
  5  7  1  0
  6  7  1  0
  8  5  1  6
  8  9  1  0
  8 10  1  0
  9 11  1  0
  9 12  1  0
  9 13  1  6
 10 14  1  0
 13 14  1  0
 11 15  2  0
 12 16  1  0
 12 17  2  0
 15 18  1  0
 16 18  2  0
 16 19  1  0
 17 20  1  0
 19 20  2  0
M  END
