mac-x0138-diamond-x0290_0_A
     RDKit          3D

 17 18  0  0  0  0  0  0  0  0999 V2000
   -1.0220   14.7590   -3.3170 C   0  0  0  0  0  0  0  0  0  0  0  0
   -2.0470   14.8710   -2.3160 N   0  0  0  0  0  0  0  0  0  0  0  0
   -3.3660   15.1550   -2.5410 C   0  0  0  0  0  0  0  0  0  0  0  0
   -1.8780   14.7150   -0.9640 C   0  0  0  0  0  0  0  0  0  0  0  0
   -4.0520   15.1930   -1.4220 N   0  0  0  0  0  0  0  0  0  0  0  0
   -3.1320   14.9220   -0.4270 C   0  0  0  0  0  0  0  0  0  0  0  0
   -0.7560   14.4270   -0.2860 N   0  0  0  0  0  0  0  0  0  0  0  0
   -3.2380   14.8230    0.9640 C   0  0  0  0  0  0  0  0  0  0  0  0
   -0.9760   14.3540    1.0440 C   0  0  0  0  0  0  0  0  0  0  0  0
   -4.4880   15.0120    1.5240 N   0  0  0  0  0  0  0  0  0  0  0  0
    0.0930   14.0550    1.8490 N   0  0  0  0  0  0  0  0  0  0  0  0
   -2.1260   14.5380    1.6820 N   0  0  0  0  0  0  0  0  0  0  0  0
   -5.6580   14.5760    1.0030 C   0  0  0  0  0  0  0  0  0  0  0  0
   -5.7790   14.5320   -0.2270 O   0  0  0  0  0  0  0  0  0  0  0  0
   -6.8070   14.1280    1.8970 C   0  0  0  0  0  0  0  0  0  0  0  0
   -8.0230   13.8040    1.1250 N   0  0  0  0  0  0  0  0  0  0  0  0
   -8.6890   14.9930    0.6080 C   0  0  0  0  0  0  0  0  0  0  0  0
  1  2  1  0
  2  3  1  0
  2  4  1  0
  3  5  2  0
  4  6  2  0
  5  6  1  0
  4  7  1  0
  6  8  1  0
  7  9  2  0
  8 10  1  0
  9 11  1  0
  8 12  2  0
  9 12  1  0
 10 13  1  0
 13 14  2  0
 13 15  1  0
 15 16  1  0
 16 17  1  0
M  END
