mac-x0568-mac-x0282
     RDKit          3D

 19 21  0  0  0  0  0  0  0  0999 V2000
   -8.5010   14.4120    1.7390 C   0  0  0  0  0  0  0  0  0  0  0  0
   -7.4220   14.4950    0.7090 C   0  0  0  0  0  0  0  0  0  0  0  0
   -6.1640   13.9690    0.9700 C   0  0  0  0  0  0  0  0  0  0  0  0
   -7.7330   15.0960   -0.4580 N   0  0  0  0  0  0  0  0  0  0  0  0
   -6.7700   15.1860   -1.3970 C   0  0  0  0  0  0  0  0  0  0  0  0
   -5.1830   14.0670   -0.0170 C   0  0  0  0  0  0  0  0  0  0  0  0
   -5.4960   14.6980   -1.2390 C   0  0  0  0  0  0  0  0  0  0  0  0
   -4.4970   14.8450   -2.3200 C   0  0  0  0  0  0  0  0  0  0  0  0
   -4.6690   14.3690   -3.4150 O   0  0  0  0  0  0  0  0  0  0  0  0
   -3.4470   15.5310   -1.9070 N   0  0  0  0  0  0  0  0  0  0  0  0
   -3.2530   15.3560   -0.6210 C   0  0  0  0  0  0  0  0  0  0  0  0
   -4.1220   15.5600    0.4150 C   0  0  0  0  0  0  0  0  0  0  0  0
   -2.0520   14.9030   -0.1490 C   0  0  0  0  0  0  0  0  0  0  0  0
   -2.2050   14.8200    1.2020 C   0  0  0  0  0  0  0  0  0  0  0  0
   -3.4590   15.2160    1.5410 N   0  0  0  0  0  0  0  0  0  0  0  0
   -0.8440   14.5550   -0.7380 C   0  0  0  0  0  0  0  0  0  0  0  0
    0.1400   14.1350    0.1190 C   0  0  0  0  0  0  0  0  0  0  0  0
   -1.3050   14.4270    2.0570 N   0  0  0  0  0  0  0  0  0  0  0  0
   -0.1560   14.0950    1.4780 C   0  0  0  0  0  0  0  0  0  0  0  0
  1  2  1  0
  2  3  2  0
  2  4  1  0
  4  5  2  0
  3  6  1  0
  5  7  1  0
  6  7  2  0
  7  8  1  0
  8  9  2  0
  8 10  1  0
 10 11  1  0
 11 12  2  0
 11 13  1  0
 13 14  2  0
 12 15  1  0
 14 15  1  0
 13 16  1  0
 16 17  2  0
 14 18  1  0
 17 19  1  0
 18 19  2  0
M  END
