mac-x0472-mac-x0301
     RDKit          3D

 26 29  0  0  0  0  0  0  0  0999 V2000
   -5.5410   13.9590   -3.7410 O   0  0  0  0  0  0  0  0  0  0  0  0
   -4.0600   13.7990   -3.5020 S   0  0  0  0  0  0  0  0  0  0  0  0
   -2.5490   13.8430   -3.5310 N   0  0  0  0  0  0  0  0  0  0  0  0
   -4.1970   14.7820   -2.1990 N   0  0  0  0  0  0  0  0  0  0  0  0
   -4.2760   12.1870   -3.1450 C   0  0  0  0  0  0  0  0  0  0  0  0
   -1.6340   14.2220   -2.7160 C   0  0  0  0  0  0  0  0  0  0  0  0
   -4.5650   14.3040   -0.8880 C   0  0  0  0  0  0  0  0  0  0  0  0
   -3.5010   11.1600   -3.5840 C   0  0  0  0  0  0  0  0  0  0  0  0
   -5.3470   11.8280   -2.3220 C   0  0  0  0  0  0  0  0  0  0  0  0
   -0.2700   14.2070   -2.9200 O   0  0  0  0  0  0  0  0  0  0  0  0
   -3.8580   13.5080   -0.0610 N   0  0  0  0  0  0  0  0  0  0  0  0
   -5.9670   14.5490    0.0770 S   0  0  0  0  0  0  0  0  0  0  0  0
   -3.7430    9.8340   -3.2530 C   0  0  0  0  0  0  0  0  0  0  0  0
   -5.6070   10.5100   -1.9790 C   0  0  0  0  0  0  0  0  0  0  0  0
   -2.1990   14.7060   -1.4710 C   0  0  0  0  0  0  0  0  0  0  0  0
   -5.5100   13.6200    1.4330 C   0  0  0  0  0  0  0  0  0  0  0  0
   -4.3180   13.1860    1.0580 N   0  0  0  0  0  0  0  0  0  0  0  0
   -4.8090    9.5090   -2.4430 C   0  0  0  0  0  0  0  0  0  0  0  0
   -1.5940   14.4470   -0.2450 C   0  0  0  0  0  0  0  0  0  0  0  0
   -3.3660   15.4420   -1.4100 C   0  0  0  0  0  0  0  0  0  0  0  0
   -2.1590   14.9150    0.9200 C   0  0  0  0  0  0  0  0  0  0  0  0
   -3.9380   15.9060   -0.2420 C   0  0  0  0  0  0  0  0  0  0  0  0
   -0.4460   13.7570    0.0940 O   0  0  0  0  0  0  0  0  0  0  0  0
   -3.3210   15.6360    0.9440 C   0  0  0  0  0  0  0  0  0  0  0  0
   -1.3510   14.5250    1.9800 O   0  0  0  0  0  0  0  0  0  0  0  0
   -0.1160   14.1400    1.4270 C   0  0  0  0  0  0  0  0  0  0  0  0
  1  2  2  0
  2  3  1  0
  2  4  1  0
  2  5  1  0
  3  6  2  3
  4  7  1  0
  5  8  2  0
  5  9  1  0
  6 10  1  0
  7 11  2  0
  7 12  1  0
  8 13  1  0
  9 14  2  0
  6 15  1  0
 12 16  1  0
 11 17  1  0
 16 17  2  0
 13 18  2  0
 14 18  1  0
 15 19  1  0
 15 20  2  0
 19 21  2  0
 20 22  1  0
 19 23  1  0
 21 24  1  0
 22 24  2  0
 21 25  1  0
 23 26  1  0
 25 26  1  0
M  END
