mac-x0255-mac-x0346
     RDKit          3D

 26 28  0  0  0  0  0  0  0  0999 V2000
    1.2320   12.8870   -1.7520 O   0  0  0  0  0  0  0  0  0  0  0  0
    0.9380   12.1650   -2.8510 C   0  0  0  0  0  0  0  0  0  0  0  0
    0.2270   11.1800   -2.7590 O   0  0  0  0  0  0  0  0  0  0  0  0
    1.5890   12.7710   -4.0670 C   0  0  0  0  0  0  0  0  0  0  0  0
    0.8820   14.0300   -4.4120 C   0  0  0  0  0  0  0  0  0  0  0  0
    1.3850   15.2890   -4.6420 C   0  0  0  0  0  0  0  0  0  0  0  0
   -0.7980   13.9890   -4.5590 S   0  0  0  0  0  0  0  0  0  0  0  0
    0.3730   16.2500   -4.9590 C   0  0  0  0  0  0  0  0  0  0  0  0
   -0.8840   15.6580   -4.9410 C   0  0  0  0  0  0  0  0  0  0  0  0
    0.4560   17.6260   -5.2700 C   0  0  0  0  0  0  0  0  0  0  0  0
   -2.0580   16.3400   -5.2050 C   0  0  0  0  0  0  0  0  0  0  0  0
   -3.3490   15.5550   -5.1320 C   0  0  0  0  0  0  0  0  0  0  0  0
   -0.7030   18.3430   -5.5530 C   0  0  0  0  0  0  0  0  0  0  0  0
   -1.9420   17.7130   -5.5240 C   0  0  0  0  0  0  0  0  0  0  0  0
   -3.5240   14.8700   -3.7380 C   0  0  0  0  0  0  0  0  0  0  0  0
   -4.4050   15.5680   -2.8130 O   0  0  0  0  0  0  0  0  0  0  0  0
   -4.1280   15.4790   -1.4450 C   0  0  0  0  0  0  0  0  0  0  0  0
   -5.1580   15.1630   -0.5170 C   0  0  0  0  0  0  0  0  0  0  0  0
   -2.8280   15.7040   -0.9570 C   0  0  0  0  0  0  0  0  0  0  0  0
   -6.5860   14.8960   -0.8970 C   0  0  0  0  0  0  0  0  0  0  0  0
   -2.5390   15.6240    0.4100 C   0  0  0  0  0  0  0  0  0  0  0  0
   -4.8400   15.0880    0.8600 C   0  0  0  0  0  0  0  0  0  0  0  0
   -7.4330   14.2680   -0.0030 N   0  0  0  0  0  0  0  0  0  0  0  0
   -6.9990   15.2030   -2.0090 O   0  0  0  0  0  0  0  0  0  0  0  0
   -3.5430   15.3160    1.3140 C   0  0  0  0  0  0  0  0  0  0  0  0
   -7.4920   14.7680    1.3170 O   0  0  0  0  0  0  0  0  0  0  0  0
  1  2  1  0
  2  3  2  0
  2  4  1  0
  4  5  1  0
  5  6  2  0
  5  7  1  0
  6  8  1  0
  7  9  1  0
  8  9  2  0
  8 10  1  0
  9 11  1  0
 11 12  1  0
 10 13  2  0
 11 14  2  0
 13 14  1  0
 12 15  1  0
 15 16  1  0
 16 17  1  0
 17 18  2  0
 17 19  1  0
 18 20  1  0
 19 21  2  0
 18 22  1  0
 20 23  1  0
 20 24  2  0
 21 25  1  0
 22 25  2  0
 23 26  1  0
M  END
