mac-x0567-mac-x0346
     RDKit          3D

 15 16  0  0  0  0  0  0  0  0999 V2000
    0.2590   14.3210   -0.1540 N   0  0  0  0  0  0  0  0  0  0  0  0
   -1.0000   14.4850    0.3090 C   0  0  0  0  0  0  0  0  0  0  0  0
   -1.2700   14.5020    1.6370 N   0  0  0  0  0  0  0  0  0  0  0  0
   -2.2370   14.6550   -0.2840 C   0  0  0  0  0  0  0  0  0  0  0  0
   -2.5680   14.6660    1.9480 N   0  0  0  0  0  0  0  0  0  0  0  0
   -3.1990   14.7610    0.7830 C   0  0  0  0  0  0  0  0  0  0  0  0
   -2.5190   14.7130   -1.6490 C   0  0  0  0  0  0  0  0  0  0  0  0
   -4.5660   14.9300    0.5420 C   0  0  0  0  0  0  0  0  0  0  0  0
   -3.9130   14.8810   -1.8690 C   0  0  0  0  0  0  0  0  0  0  0  0
   -4.3610   14.9510   -3.1610 O   0  0  0  0  0  0  0  0  0  0  0  0
   -4.8970   14.9760   -0.8240 C   0  0  0  0  0  0  0  0  0  0  0  0
   -6.3450   15.1160   -1.1620 C   0  0  0  0  0  0  0  0  0  0  0  0
   -7.2660   15.1060   -0.1200 N   0  0  0  0  0  0  0  0  0  0  0  0
   -6.7180   15.2020   -2.3180 O   0  0  0  0  0  0  0  0  0  0  0  0
   -7.1920   14.0510    0.8270 O   0  0  0  0  0  0  0  0  0  0  0  0
  1  2  1  0
  2  3  1  0
  2  4  2  0
  3  5  1  0
  4  6  1  0
  5  6  2  0
  4  7  1  0
  6  8  1  0
  7  9  2  0
  9 10  1  0
  8 11  2  0
  9 11  1  0
 11 12  1  0
 12 13  1  0
 12 14  2  0
 13 15  1  0
M  END
