mac-x0472-mac-x0584
     RDKit          3D

 28 32  0  0  0  0  0  0  0  0999 V2000
   -4.8210   15.0610   -2.1230 O   0  0  0  0  0  0  0  0  0  0  0  0
   -3.8920   14.0230   -2.4970 S   0  0  0  0  0  0  0  0  0  0  0  0
   -3.2100   14.0500   -3.7710 O   0  0  0  0  0  0  0  0  0  0  0  0
   -2.7800   13.6930   -1.3260 N   0  0  0  0  0  0  0  0  0  0  0  0
   -4.5760   12.4330   -2.3190 C   0  0  0  0  0  0  0  0  0  0  0  0
   -2.2880   14.7240   -0.4990 C   0  0  2  0  0  0  0  0  0  0  0  0
   -3.8260   11.3550   -2.7800 C   0  0  0  0  0  0  0  0  0  0  0  0
   -5.8170   12.2680   -1.7250 C   0  0  0  0  0  0  0  0  0  0  0  0
   -1.8730   14.3490    0.8670 N   0  0  0  0  0  0  0  0  0  0  0  0
   -3.7040   15.8420   -0.1830 S   0  0  0  0  0  0  0  0  0  0  0  0
   -4.3340   10.0730   -2.6460 C   0  0  0  0  0  0  0  0  0  0  0  0
   -6.3210   10.9820   -1.5920 C   0  0  0  0  0  0  0  0  0  0  0  0
   -1.0830   15.2540   -1.3260 C   0  0  0  0  0  0  0  0  0  0  0  0
   -3.7640   15.2540    1.4610 C   0  0  0  0  0  0  0  0  0  0  0  0
   -2.7890   14.5190    1.8580 N   0  0  0  0  0  0  0  0  0  0  0  0
   -5.5850    9.8910   -2.0520 C   0  0  0  0  0  0  0  0  0  0  0  0
   -1.1250   15.4500   -2.7660 N   0  0  0  0  0  0  0  0  0  0  0  0
    0.0410   15.4910   -0.7410 N   0  0  0  0  0  0  0  0  0  0  0  0
   -0.7260   14.7620    1.3890 N   0  0  0  0  0  0  0  0  0  0  0  0
   -0.9580   14.3100   -3.6780 C   0  0  2  0  0  0  0  0  0  0  0  0
   -2.2300   16.2140   -3.4030 C   0  0  0  0  0  0  0  0  0  0  0  0
    0.1380   15.2920    0.6040 C   0  0  0  0  0  0  0  0  0  0  0  0
    0.3220   13.5430   -3.6210 C   0  0  0  0  0  0  0  0  0  0  0  0
   -1.0980   14.9210   -5.0600 C   0  0  0  0  0  0  0  0  0  0  0  0
   -2.3000   15.8110   -4.8780 C   0  0  0  0  0  0  0  0  0  0  0  0
    0.9090   13.0300   -2.2940 C   0  0  0  0  0  0  0  0  0  0  0  0
    0.1840   12.0760   -4.0840 C   0  0  0  0  0  0  0  0  0  0  0  0
    1.2230   11.7460   -3.0280 C   0  0  0  0  0  0  0  0  0  0  0  0
  1  2  2  0
  2  3  2  0
  2  4  1  0
  2  5  1  0
  6  4  1  6
  5  7  2  0
  5  8  1  0
  6  9  1  0
  6 10  1  0
  7 11  1  0
  8 12  2  0
  6 13  1  0
 10 14  1  0
  9 15  1  0
 14 15  2  0
 11 16  2  0
 12 16  1  0
 13 17  1  0
 13 18  2  0
  9 19  1  0
 17 20  1  0
 17 21  1  0
 18 22  1  0
 19 22  2  0
 20 23  1  6
 20 24  1  0
 21 25  1  0
 24 25  1  0
 23 26  1  0
 23 27  1  0
 26 28  1  0
 27 28  1  0
M  END
