mac-x0115-mac-x0527
     RDKit          3D

 32 35  0  0  0  0  0  0  0  0999 V2000
   -1.4020   18.6500   -5.1640 C   0  0  0  0  0  0  0  0  0  0  0  0
   -0.4330   17.7390   -5.8820 C   0  0  0  0  0  0  0  0  0  0  0  0
    1.0060   18.0390   -5.5090 C   0  0  0  0  0  0  0  0  0  0  0  0
   -0.7080   16.3810   -5.5330 O   0  0  0  0  0  0  0  0  0  0  0  0
    0.1460   15.7830   -4.5560 C   0  0  0  0  0  0  0  0  0  0  0  0
   -0.6860   14.7510   -3.6630 C   0  0  2  0  0  0  0  0  0  0  0  0
   -2.0970   15.2680   -3.5820 N   0  0  0  0  0  0  0  0  0  0  0  0
   -0.2040   14.9270   -2.2310 N   0  0  0  0  0  0  0  0  0  0  0  0
   -0.7310   13.3420   -4.3880 C   0  0  0  0  0  0  0  0  0  0  0  0
   -3.3360   14.6430   -3.2350 C   0  0  0  0  0  0  0  0  0  0  0  0
    0.8830   14.3370   -1.5150 C   0  0  0  0  0  0  0  0  0  0  0  0
   -1.2670   15.3810   -1.4710 C   0  0  0  0  0  0  0  0  0  0  0  0
   -1.6780   12.3490   -4.0500 C   0  0  0  0  0  0  0  0  0  0  0  0
    0.1780   13.0110   -5.4230 C   0  0  0  0  0  0  0  0  0  0  0  0
    2.4360   13.9080   -2.0170 S   0  0  0  0  0  0  0  0  0  0  0  0
   -4.0060   14.1160   -4.0970 O   0  0  0  0  0  0  0  0  0  0  0  0
    0.6260   14.0940   -0.1530 N   0  0  0  0  0  0  0  0  0  0  0  0
   -1.0980   15.7230   -0.0470 C   0  0  2  0  0  0  0  0  0  0  0  0
   -2.5230   15.5910   -1.8540 C   0  0  0  0  0  0  0  0  0  0  0  0
   -3.9410   14.6400   -1.8060 C   0  0  0  0  0  0  0  0  0  0  0  0
   -1.7210   11.1060   -4.6990 C   0  0  0  0  0  0  0  0  0  0  0  0
    0.1360   11.7700   -6.0710 C   0  0  0  0  0  0  0  0  0  0  0  0
   -0.3950   14.6190    0.6430 C   0  0  0  0  0  0  0  0  0  0  0  0
   -2.4470   16.0440    0.4470 N   0  0  0  0  0  0  0  0  0  0  0  0
   -3.1640   15.9890   -0.6200 C   0  0  0  0  0  0  0  0  0  0  0  0
   -5.2620   15.0820   -1.6180 C   0  0  0  0  0  0  0  0  0  0  0  0
   -3.2230   14.2030   -0.7170 N   0  0  0  0  0  0  0  0  0  0  0  0
   -0.8100   10.8200   -5.7110 C   0  0  0  0  0  0  0  0  0  0  0  0
   -0.6610   14.2260    1.7830 O   0  0  0  0  0  0  0  0  0  0  0  0
   -5.8930   15.1090   -0.4020 N   0  0  0  0  0  0  0  0  0  0  0  0
   -3.8540   14.2370    0.4960 C   0  0  0  0  0  0  0  0  0  0  0  0
   -5.1540   14.6790    0.6500 C   0  0  0  0  0  0  0  0  0  0  0  0
  1  2  1  0
  2  3  1  0
  2  4  1  0
  4  5  1  0
  6  5  1  6
  6  7  1  0
  6  8  1  0
  6  9  1  0
  7 10  1  0
  8 11  1  0
  8 12  1  0
  9 13  2  0
  9 14  1  0
 11 15  2  0
 10 16  2  0
 11 17  1  0
 12 18  1  0
 12 19  2  0
 10 20  1  0
 13 21  1  0
 14 22  2  0
 17 23  1  0
 18 23  1  0
 18 24  1  1
 19 25  1  0
 24 25  2  0
 20 26  2  0
 20 27  1  0
 21 28  2  0
 22 28  1  0
 23 29  2  0
 26 30  1  0
 27 31  2  0
 30 32  2  0
 31 32  1  0
M  END
