mac-x0319-mac-x0404
     RDKit          3D

 15 16  0  0  0  0  0  0  0  0999 V2000
    0.3800   10.5600   -2.6250 O   0  0  0  0  0  0  0  0  0  0  0  0
    0.8160   11.8600   -2.5690 C   0  0  0  0  0  0  0  0  0  0  0  0
    0.7280   12.4670   -1.5060 O   0  0  0  0  0  0  0  0  0  0  0  0
    1.3650   12.4210   -3.9060 C   0  0  0  0  0  0  0  0  0  0  0  0
    0.6860   13.7060   -4.3130 C   0  0  0  0  0  0  0  0  0  0  0  0
    1.2320   14.9520   -4.1850 C   0  0  0  0  0  0  0  0  0  0  0  0
   -0.6480   13.5580   -4.8580 C   0  0  0  0  0  0  0  0  0  0  0  0
    0.4550   16.2150   -4.5320 C   0  0  2  0  0  0  0  0  0  0  0  0
   -1.4810   14.5850   -4.9520 C   0  0  0  0  0  0  0  0  0  0  0  0
    0.7650   17.0880   -3.4640 O   0  0  0  0  0  0  0  0  0  0  0  0
   -1.0880   15.9410   -4.4780 C   0  0  2  0  0  0  0  0  0  0  0  0
    0.8450   17.1100   -5.6790 C   0  0  0  0  0  0  0  0  0  0  0  0
   -0.0410   17.9080   -6.3070 C   0  0  0  0  0  0  0  0  0  0  0  0
   -1.9300   17.0120   -5.1060 C   0  0  0  0  0  0  0  0  0  0  0  0
   -1.4320   17.9220   -5.9420 C   0  0  0  0  0  0  0  0  0  0  0  0
  1  2  1  0
  2  3  2  0
  2  4  1  0
  4  5  1  0
  5  6  2  0
  5  7  1  0
  6  8  1  0
  7  9  2  0
  8 10  1  1
  8 11  1  0
 11  9  1  6
  8 12  1  0
 12 13  2  0
 11 14  1  0
 13 15  1  0
 14 15  2  0
M  END
