mac-x0326-diamond-x0727_0_A
     RDKit          3D

 23 25  0  0  0  0  0  0  0  0999 V2000
   -6.2320   15.5510   -1.3800 Cl  0  0  0  0  0  0  0  0  0  0  0  0
   -4.5420   15.2420   -1.3780 C   0  0  0  0  0  0  0  0  0  0  0  0
   -3.8740   15.0920   -2.5920 C   0  0  0  0  0  0  0  0  0  0  0  0
   -3.8650   15.1410   -0.1660 C   0  0  0  0  0  0  0  0  0  0  0  0
   -2.4920   14.8330   -2.5890 C   0  0  0  0  0  0  0  0  0  0  0  0
   -2.4920   14.8810   -0.1380 C   0  0  0  0  0  0  0  0  0  0  0  0
   -1.7090   14.6600   -3.7170 N   0  0  0  0  0  0  0  0  0  0  0  0
   -1.8200   14.7310   -1.3690 C   0  0  0  0  0  0  0  0  0  0  0  0
   -0.4610   14.4260   -3.3840 C   0  0  0  0  0  0  0  0  0  0  0  0
   -0.1500   14.4140   -1.6850 S   0  0  0  0  0  0  0  0  0  0  0  0
    0.6200   14.1830   -4.4130 C   0  0  0  0  0  0  0  0  0  0  0  0
    1.0150   12.6950   -4.5340 C   0  0  1  0  0  0  0  0  0  0  0  0
    0.9250   12.1020   -3.1360 C   0  0  0  0  0  0  0  0  0  0  0  0
    0.1770   11.8630   -5.4500 N   0  0  0  0  0  0  0  0  0  0  0  0
    0.1680   10.9900   -3.0500 O   0  0  0  0  0  0  0  0  0  0  0  0
    1.4790   12.5460   -2.1440 O   0  0  0  0  0  0  0  0  0  0  0  0
    0.7690   11.3640   -6.6020 C   0  0  0  0  0  0  0  0  0  0  0  0
    1.7970   11.8480   -7.0020 O   0  0  0  0  0  0  0  0  0  0  0  0
    0.0930   10.1790   -7.3140 C   0  0  0  0  0  0  0  0  0  0  0  0
   -1.2170   10.5340   -8.0230 C   0  0  0  0  0  0  0  0  0  0  0  0
   -0.2500    8.9840   -6.4000 C   0  0  0  0  0  0  0  0  0  0  0  0
   -2.0130    9.2370   -8.0240 C   0  0  0  0  0  0  0  0  0  0  0  0
   -1.7040    8.6290   -6.6670 C   0  0  0  0  0  0  0  0  0  0  0  0
  1  2  1  0
  2  3  2  0
  2  4  1  0
  3  5  1  0
  4  6  2  0
  5  7  1  0
  5  8  2  0
  6  8  1  0
  7  9  2  0
  8 10  1  0
  9 10  1  0
  9 11  1  0
 12 11  1  1
 12 13  1  0
 12 14  1  0
 13 15  1  0
 13 16  2  0
 14 17  1  0
 17 18  2  0
 17 19  1  0
 19 20  1  0
 19 21  1  0
 20 22  1  0
 21 23  1  0
 22 23  1  0
M  END
