mac-x0411-mac-x0223
     RDKit          3D

 23 24  0  0  0  0  0  0  0  0999 V2000
    0.8970    9.5500   -7.8760 Cl  0  0  0  0  0  0  0  0  0  0  0  0
   -0.5110    9.8190   -6.9220 C   0  0  0  0  0  0  0  0  0  0  0  0
   -0.7120   10.9640   -6.1090 C   0  0  0  0  0  0  0  0  0  0  0  0
   -1.4860    8.8130   -6.9920 C   0  0  0  0  0  0  0  0  0  0  0  0
    0.2150   12.0090   -5.9780 O   0  0  0  0  0  0  0  0  0  0  0  0
   -1.9310   11.0340   -5.3920 C   0  0  0  0  0  0  0  0  0  0  0  0
   -2.6680    8.9170   -6.2730 C   0  0  0  0  0  0  0  0  0  0  0  0
   -2.3770   12.3300   -4.3490 Cl  0  0  0  0  0  0  0  0  0  0  0  0
   -0.0350   12.6920   -4.7250 C   0  0  1  0  0  0  0  0  0  0  0  0
   -2.8870   10.0250   -5.4780 C   0  0  0  0  0  0  0  0  0  0  0  0
    0.8260   12.2310   -3.5460 C   0  0  0  0  0  0  0  0  0  0  0  0
   -0.4570   14.2010   -4.7590 C   0  0  0  0  0  0  0  0  0  0  0  0
    1.5740   13.1950   -2.9530 O   0  0  0  0  0  0  0  0  0  0  0  0
    0.8120   11.0790   -3.1330 O   0  0  0  0  0  0  0  0  0  0  0  0
   -1.8370   14.4390   -4.9040 C   0  0  0  0  0  0  0  0  0  0  0  0
    0.3840   15.3520   -4.6460 C   0  0  0  0  0  0  0  0  0  0  0  0
    1.0120   13.3610   -1.6020 O   0  0  0  0  0  0  0  0  0  0  0  0
   -0.1910   16.6600   -4.6770 C   0  0  0  0  0  0  0  0  0  0  0  0
   -2.3890   15.7110   -4.9350 C   0  0  0  0  0  0  0  0  0  0  0  0
    0.4670   17.8510   -4.5740 O   0  0  0  0  0  0  0  0  0  0  0  0
   -1.5740   16.8110   -4.8200 C   0  0  0  0  0  0  0  0  0  0  0  0
    1.1720   18.2930   -5.7100 C   0  0  0  0  0  0  0  0  0  0  0  0
   -2.1150   18.0740   -4.8420 O   0  0  0  0  0  0  0  0  0  0  0  0
  1  2  1  0
  2  3  2  0
  2  4  1  0
  3  5  1  0
  3  6  1  0
  4  7  2  0
  6  8  1  0
  9  5  1  6
  6 10  2  0
  7 10  1  0
  9 11  1  0
  9 12  1  0
 11 13  1  0
 11 14  2  0
 12 15  2  0
 12 16  1  0
 13 17  1  0
 16 18  2  0
 15 19  1  0
 18 20  1  0
 18 21  1  0
 19 21  2  0
 20 22  1  0
 21 23  1  0
M  END
