mac-x0282-diamond-x0895_1_A
     RDKit          3D

 11 12  0  0  0  0  0  0  0  0999 V2000
   -2.7700   14.9910    2.5500 O   0  0  0  0  0  0  0  0  0  0  0  0
   -2.9280   14.9360    1.3170 N   0  0  0  0  0  0  0  0  0  0  0  0
   -4.1910   14.9530    0.5360 C   0  0  0  0  0  0  0  0  0  0  0  0
   -1.9550   14.8690    0.5320 C   0  0  0  0  0  0  0  0  0  0  0  0
   -5.3840   15.0040    0.8480 O   0  0  0  0  0  0  0  0  0  0  0  0
   -3.7300   14.8800   -0.8750 C   0  0  0  0  0  0  0  0  0  0  0  0
   -2.3910   14.8140   -0.8630 C   0  0  0  0  0  0  0  0  0  0  0  0
   -0.6380   14.8690    0.8550 N   0  0  0  0  0  0  0  0  0  0  0  0
   -1.4150   14.7190   -1.8910 C   0  0  0  0  0  0  0  0  0  0  0  0
    0.1930   14.8200   -0.1120 C   0  0  0  0  0  0  0  0  0  0  0  0
   -0.1240   14.7230   -1.5410 C   0  0  0  0  0  0  0  0  0  0  0  0
  1  2  1  0
  2  3  1  0
  2  4  2  0
  3  5  2  0
  3  6  1  0
  4  7  1  0
  6  7  2  0
  4  8  1  0
  7  9  1  0
  8 10  2  0
  9 11  2  0
 10 11  1  0
M  CHG  2   1  -1   2   1
M  END
