mac-x0546-mac-x0568
     RDKit          3D

 27 29  0  0  0  0  0  0  0  0999 V2000
   -3.9750   14.9800   -6.8830 C   0  0  0  0  0  0  0  0  0  0  0  0
   -3.6440   15.7120   -5.6700 N   0  0  0  0  0  0  0  0  0  0  0  0
   -4.2490   14.8780   -4.6270 C   0  0  0  0  0  0  0  0  0  0  0  0
   -2.3430   15.9560   -5.2500 C   0  0  0  0  0  0  0  0  0  0  0  0
   -3.4120   15.0780   -3.3610 C   0  0  0  0  0  0  0  0  0  0  0  0
   -1.7070   14.8790   -4.7780 C   0  0  0  0  0  0  0  0  0  0  0  0
   -1.6440   17.2640   -5.1960 C   0  0  0  0  0  0  0  0  0  0  0  0
   -4.2370   15.0100   -2.2100 N   0  0  0  0  0  0  0  0  0  0  0  0
   -0.3930   14.9520   -4.1650 C   0  0  2  0  0  0  0  0  0  0  0  0
   -0.3190   17.3900   -4.9190 C   0  0  0  0  0  0  0  0  0  0  0  0
   -3.8670   14.9580   -1.0040 C   0  0  0  0  0  0  0  0  0  0  0  0
    0.3840   16.1120   -4.6900 C   0  0  0  0  0  0  0  0  0  0  0  0
    0.6520   13.8990   -4.2880 C   0  0  0  0  0  0  0  0  0  0  0  0
    0.4540   12.4350   -4.0500 C   0  0  0  0  0  0  0  0  0  0  0  0
   -2.6110   14.9550   -0.4490 N   0  0  0  0  0  0  0  0  0  0  0  0
    1.6250   15.8640   -4.8760 N   0  0  0  0  0  0  0  0  0  0  0  0
    1.7670   14.5150   -4.6390 C   0  0  0  0  0  0  0  0  0  0  0  0
   -5.0770   14.8590   -0.1900 C   0  0  0  0  0  0  0  0  0  0  0  0
    0.3640   11.9200   -2.6010 C   0  0  0  0  0  0  0  0  0  0  0  0
   -6.2740   14.7900   -0.8830 C   0  0  0  0  0  0  0  0  0  0  0  0
   -5.1020   14.8240    1.1870 C   0  0  0  0  0  0  0  0  0  0  0  0
    0.5030   12.5500   -1.5620 O   0  0  0  0  0  0  0  0  0  0  0  0
    0.0840   10.5840   -2.5550 O   0  0  0  0  0  0  0  0  0  0  0  0
   -7.4850   14.6850   -0.3070 N   0  0  0  0  0  0  0  0  0  0  0  0
   -6.3480   14.7150    1.8120 C   0  0  0  0  0  0  0  0  0  0  0  0
   -7.5010   14.6470    1.0370 C   0  0  0  0  0  0  0  0  0  0  0  0
   -8.8380   14.5300    1.6940 C   0  0  0  0  0  0  0  0  0  0  0  0
  1  2  1  0
  2  3  1  0
  2  4  1  0
  3  5  1  0
  4  6  2  0
  4  7  1  0
  5  8  1  0
  9  6  1  6
  7 10  2  0
  8 11  2  3
  9 12  1  0
 10 12  1  0
  9 13  1  0
 13 14  1  0
 11 15  1  0
 12 16  2  0
 13 17  2  0
 16 17  1  0
 11 18  1  0
 14 19  1  0
 18 20  2  0
 18 21  1  0
 19 22  2  0
 19 23  1  0
 20 24  1  0
 21 25  2  0
 24 26  2  0
 25 26  1  0
 26 27  1  0
M  END
