mac-x1493-mac-x0572
     RDKit          3D

 16 17  0  0  0  0  0  0  0  0999 V2000
   -1.2370   14.6470   -1.6240 O   0  0  0  0  0  0  0  0  0  0  0  0
   -2.2910   14.8800   -2.4300 C   0  0  0  0  0  0  0  0  0  0  0  0
   -2.1270   14.8870   -3.6390 O   0  0  0  0  0  0  0  0  0  0  0  0
   -3.5840   15.1200   -1.6820 C   0  0  2  0  0  0  0  0  0  0  0  0
   -3.4920   14.6640   -0.2080 C   0  0  0  0  0  0  0  0  0  0  0  0
   -4.7660   14.5220   -2.4650 C   0  0  0  0  0  0  0  0  0  0  0  0
   -4.8480   14.7340    0.5030 C   0  0  1  0  0  0  0  0  0  0  0  0
   -6.0110   14.4190   -1.7180 N   0  0  0  0  0  0  0  0  0  0  0  0
   -5.9810   15.1490   -0.4490 C   0  0  1  0  0  0  0  0  0  0  0  0
   -5.2040   13.4520    1.2910 C   0  0  0  0  0  0  0  0  0  0  0  0
   -7.3390   14.9850    0.2180 C   0  0  0  0  0  0  0  0  0  0  0  0
   -6.6720   13.3870    1.7690 C   0  0  2  0  0  0  0  0  0  0  0  0
   -8.3740   15.0330   -0.4470 O   0  0  0  0  0  0  0  0  0  0  0  0
   -7.4920   12.5820    0.9190 O   0  0  0  0  0  0  0  0  0  0  0  0
   -7.2940   14.7230    1.7160 C   0  0  2  0  0  0  0  0  0  0  0  0
   -8.5960   14.9230    2.4850 C   0  0  0  0  0  0  0  0  0  0  0  0
  1  2  1  0
  2  3  2  0
  4  2  1  6
  4  5  1  0
  4  6  1  0
  7  5  1  6
  6  8  1  0
  7  9  1  0
  9  8  1  6
  7 10  1  0
  9 11  1  0
 10 12  1  0
 11 13  2  0
 12 14  1  6
 11 15  1  0
 12 15  1  0
 15 16  1  6
M  END
