mac-x0277-mac-x0402
     RDKit          3D

 24 26  0  0  0  0  0  0  0  0999 V2000
   -1.3380   18.2960   -5.3540 Cl  0  0  0  0  0  0  0  0  0  0  0  0
   -0.5800   16.7770   -5.0460 C   0  0  0  0  0  0  0  0  0  0  0  0
   -1.2340   15.5540   -5.2650 C   0  0  0  0  0  0  0  0  0  0  0  0
    0.7300   16.7890   -4.5610 C   0  0  0  0  0  0  0  0  0  0  0  0
   -2.6470   15.3940   -5.7830 C   0  0  0  0  0  0  0  0  0  0  0  0
   -0.5440   14.3660   -4.9850 C   0  0  0  0  0  0  0  0  0  0  0  0
    1.3980   15.5920   -4.2900 C   0  0  0  0  0  0  0  0  0  0  0  0
   -3.4590   14.8250   -4.6970 C   0  0  0  0  0  0  0  0  0  0  0  0
    0.7640   14.3640   -4.5020 C   0  0  0  0  0  0  0  0  0  0  0  0
    1.4610   13.0590   -4.2180 C   0  0  0  0  0  0  0  0  0  0  0  0
   -2.8950   15.3940   -3.4300 C   0  0  0  0  0  0  0  0  0  0  0  0
    1.0560   12.4190   -2.9050 C   0  0  0  0  0  0  0  0  0  0  0  0
   -3.8210   15.2380   -2.3110 C   0  0  0  0  0  0  0  0  0  0  0  0
    0.5770   11.1590   -3.0560 O   0  0  0  0  0  0  0  0  0  0  0  0
    1.1330   12.9410   -1.8080 O   0  0  0  0  0  0  0  0  0  0  0  0
   -5.1320   15.0080   -2.6480 C   0  0  0  0  0  0  0  0  0  0  0  0
   -3.4170   15.3240   -0.9840 C   0  0  0  0  0  0  0  0  0  0  0  0
   -4.3960   15.1940   -0.0210 C   0  0  0  0  0  0  0  0  0  0  0  0
   -6.0870   14.8640   -1.6870 C   0  0  0  0  0  0  0  0  0  0  0  0
   -5.7230   14.9600   -0.3600 C   0  0  0  0  0  0  0  0  0  0  0  0
   -4.2730   15.2850    1.6680 S   0  0  0  0  0  0  0  0  0  0  0  0
   -5.9790   14.9980    1.7880 C   0  0  0  0  0  0  0  0  0  0  0  0
   -6.6020   14.8410    0.6730 N   0  0  0  0  0  0  0  0  0  0  0  0
   -6.6530   14.9490    2.9450 N   0  0  0  0  0  0  0  0  0  0  0  0
  1  2  1  0
  2  3  2  0
  2  4  1  0
  3  5  1  0
  3  6  1  0
  4  7  2  0
  5  8  1  0
  6  9  2  0
  7  9  1  0
  9 10  1  0
  8 11  1  0
 10 12  1  0
 11 13  1  0
 12 14  1  0
 12 15  2  0
 13 16  2  0
 13 17  1  0
 17 18  2  0
 16 19  1  0
 18 20  1  0
 19 20  2  0
 18 21  1  0
 21 22  1  0
 20 23  1  0
 22 23  2  0
 22 24  1  0
M  END
