mac-x0555-mac-x0124
     RDKit          3D

 22 25  0  0  0  0  0  0  0  0999 V2000
   -7.7830   14.1040    3.0070 N   0  0  0  0  0  0  0  0  0  0  0  0
   -7.4650   14.3730    1.6810 C   0  0  0  0  0  0  0  0  0  0  0  0
   -8.3140   14.4050    0.5800 C   0  0  0  0  0  0  0  0  0  0  0  0
   -6.1700   14.6360    1.4220 C   0  0  0  0  0  0  0  0  0  0  0  0
   -5.7100   14.9120    0.1730 C   0  0  0  0  0  0  0  0  0  0  0  0
   -7.9080   14.6790   -0.6960 N   0  0  0  0  0  0  0  0  0  0  0  0
   -6.6050   14.9300   -0.8860 C   0  0  0  0  0  0  0  0  0  0  0  0
   -4.3900   15.1580    0.0070 C   0  0  0  0  0  0  0  0  0  0  0  0
   -3.5520   15.1010    1.1030 N   0  0  0  0  0  0  0  0  0  0  0  0
   -6.1190   15.2150   -2.1530 C   0  0  0  0  0  0  0  0  0  0  0  0
   -3.9130   15.4460   -1.2670 C   0  0  0  0  0  0  0  0  0  0  0  0
   -4.7700   15.4740   -2.3520 C   0  0  0  0  0  0  0  0  0  0  0  0
   -2.2580   14.9530    0.7820 C   0  0  0  0  0  0  0  0  0  0  0  0
   -2.0320   14.8330   -0.5960 C   0  0  0  0  0  0  0  0  0  0  0  0
   -1.2420   14.9370    1.6210 N   0  0  0  0  0  0  0  0  0  0  0  0
   -2.8500   14.7980   -1.7710 C   0  0  0  0  0  0  0  0  0  0  0  0
   -0.7400   14.7280   -1.0190 C   0  0  0  0  0  0  0  0  0  0  0  0
   -0.0370   14.8230    1.0780 C   0  0  0  0  0  0  0  0  0  0  0  0
   -0.7420   14.6490   -2.3910 N   0  0  0  0  0  0  0  0  0  0  0  0
   -2.0270   14.6860   -2.8610 C   0  0  0  0  0  0  0  0  0  0  0  0
    0.3270   14.7150   -0.2240 N   0  0  0  0  0  0  0  0  0  0  0  0
    0.4390   14.5470   -3.2040 C   0  0  0  0  0  0  0  0  0  0  0  0
  1  2  1  0
  2  3  2  0
  2  4  1  0
  4  5  2  0
  3  6  1  0
  5  7  1  0
  6  7  2  0
  5  8  1  0
  8  9  1  0
  7 10  1  0
  8 11  2  0
 10 12  2  0
 11 12  1  0
  9 13  1  0
 13 14  1  0
 13 15  2  0
 14 16  1  0
 14 17  2  0
 15 18  1  0
 17 19  1  0
 16 20  2  0
 19 20  1  0
 17 21  1  0
 18 21  2  0
 19 22  1  0
M  END
