mac-x0116-diamond-x0587_0_A
     RDKit          3D

 28 31  0  0  0  0  0  0  0  0999 V2000
   -4.6730   14.0080    2.1110 C   0  0  0  0  0  0  0  0  0  0  0  0
   -4.3490   15.0830    1.1770 N   0  0  0  0  0  0  0  0  0  0  0  0
   -3.5250   14.9450    0.0930 C   0  0  0  0  0  0  0  0  0  0  0  0
   -5.6200   12.8840    1.7970 C   0  0  0  0  0  0  0  0  0  0  0  0
   -5.7020   12.4030    0.5190 O   0  0  0  0  0  0  0  0  0  0  0  0
   -6.4900   12.1840    2.6100 C   0  0  0  0  0  0  0  0  0  0  0  0
   -7.1380   11.2350    1.7980 C   0  0  0  0  0  0  0  0  0  0  0  0
   -6.6280   11.4050    0.5340 C   0  0  0  0  0  0  0  0  0  0  0  0
   -3.9040   15.0080   -1.2530 N   0  0  0  0  0  0  0  0  0  0  0  0
   -2.2440   14.7170    0.3770 C   0  0  0  0  0  0  0  0  0  0  0  0
   -2.9100   14.8330   -2.1980 C   0  0  0  0  0  0  0  0  0  0  0  0
   -1.2840   14.5590   -0.6890 C   0  0  0  0  0  0  0  0  0  0  0  0
   -1.5940   14.5960    1.5760 N   0  0  0  0  0  0  0  0  0  0  0  0
   -5.2420   14.5750   -1.6680 C   0  0  0  0  0  0  0  0  0  0  0  0
   -1.6440   14.6130   -1.9990 N   0  0  0  0  0  0  0  0  0  0  0  0
   -0.1090   14.3780   -0.1830 N   0  0  0  0  0  0  0  0  0  0  0  0
   -0.3700   14.4140    1.1870 C   0  0  0  0  0  0  0  0  0  0  0  0
   -5.1260   13.2810   -2.1250 F   0  0  0  0  0  0  0  0  0  0  0  0
   -5.6200   15.2640   -2.7800 F   0  0  0  0  0  0  0  0  0  0  0  0
   -6.2470   14.6710   -0.4830 C   0  0  0  0  0  0  0  0  0  0  0  0
   -7.5880   14.7310   -0.6890 N   0  0  0  0  0  0  0  0  0  0  0  0
   -5.7240   14.6910    0.7590 N   0  0  0  0  0  0  0  0  0  0  0  0
   -8.3770   14.8180    0.4230 C   0  0  0  0  0  0  0  0  0  0  0  0
   -6.5460   14.7770    1.8230 C   0  0  0  0  0  0  0  0  0  0  0  0
   -7.8960   14.8480    1.7230 C   0  0  0  0  0  0  0  0  0  0  0  0
   -8.6710   14.9520    2.9650 C   0  0  0  0  0  0  0  0  0  0  0  0
   -8.0010   15.1670    4.1520 N   0  0  0  0  0  0  0  0  0  0  0  0
   -9.8920   14.8710    2.9440 O   0  0  0  0  0  0  0  0  0  0  0  0
  1  2  1  0
  2  3  1  0
  1  4  1  0
  4  5  1  0
  4  6  2  0
  6  7  1  0
  5  8  1  0
  7  8  2  0
  3  9  1  0
  3 10  2  0
  9 11  1  0
 10 12  1  0
 10 13  1  0
  9 14  1  0
 11 15  2  0
 12 15  1  0
 12 16  2  0
 13 17  2  0
 16 17  1  0
 14 18  1  0
 14 19  1  0
 14 20  1  0
 20 21  2  0
 20 22  1  0
 21 23  1  0
 22 24  2  0
 23 25  2  0
 24 25  1  0
 25 26  1  0
 26 27  1  0
 26 28  2  0
M  END
