mac-x0347-mac-x0204
     RDKit          3D

 22 24  0  0  0  0  0  0  0  0999 V2000
    1.1650   15.1160   -3.1640 O   0  0  0  0  0  0  0  0  0  0  0  0
    0.1890   14.1350   -2.8640 C   0  0  0  0  0  0  0  0  0  0  0  0
    0.6960   13.1330   -1.9980 O   0  0  0  0  0  0  0  0  0  0  0  0
   -1.1830   14.6140   -2.5520 C   0  0  0  0  0  0  0  0  0  0  0  0
   -0.6510   13.7030   -4.0330 C   0  0  0  0  0  0  0  0  0  0  0  0
   -1.9160   14.4770   -1.3830 C   0  0  0  0  0  0  0  0  0  0  0  0
   -1.8060   15.2330   -3.6300 C   0  0  0  0  0  0  0  0  0  0  0  0
   -1.3430   14.7780   -4.6160 C   0  0  0  0  0  0  0  0  0  0  0  0
   -0.8740   12.4460   -4.5610 C   0  0  0  0  0  0  0  0  0  0  0  0
   -3.2340   14.9490   -1.3870 C   0  0  0  0  0  0  0  0  0  0  0  0
   -3.0570   15.7040   -3.6590 N   0  0  0  0  0  0  0  0  0  0  0  0
   -2.2210   14.5870   -5.6530 C   0  0  0  0  0  0  0  0  0  0  0  0
   -1.7380   12.2260   -5.6000 N   0  0  0  0  0  0  0  0  0  0  0  0
   -2.8650   15.6890   -6.1500 O   0  0  0  0  0  0  0  0  0  0  0  0
   -3.7320   15.5360   -2.5290 C   0  0  0  0  0  0  0  0  0  0  0  0
   -4.1250   14.8540   -0.2760 C   0  0  0  0  0  0  0  0  0  0  0  0
   -2.3940   13.3020   -6.1170 C   0  0  0  0  0  0  0  0  0  0  0  0
   -3.8390   15.4450    0.9440 C   0  0  0  0  0  0  0  0  0  0  0  0
   -5.3190   14.1470   -0.4510 C   0  0  0  0  0  0  0  0  0  0  0  0
   -4.7430   15.3330    1.9810 C   0  0  0  0  0  0  0  0  0  0  0  0
   -6.2270   14.0320    0.5850 C   0  0  0  0  0  0  0  0  0  0  0  0
   -5.9360   14.6300    1.8010 C   0  0  0  0  0  0  0  0  0  0  0  0
  2  1  1  0
  2  3  1  0
  2  4  1  0
  2  5  1  0
  4  6  2  0
  4  7  1  0
  5  8  2  0
  5  9  1  0
  6 10  1  0
  7 11  2  0
  8 12  1  0
  9 13  2  0
 12 14  1  0
 10 15  2  0
 11 15  1  0
 10 16  1  0
 12 17  2  0
 13 17  1  0
 16 18  2  0
 16 19  1  0
 18 20  1  0
 19 21  2  0
 20 22  2  0
 21 22  1  0
M  END
