mac-x0361-mac-x0371
     RDKit          3D

 21 22  0  0  0  0  0  0  0  0999 V2000
   -5.7120   14.9340    1.5310 N   0  0  0  0  0  0  0  0  0  0  0  0
   -6.1370   14.9030    0.2330 C   0  0  0  0  0  0  0  0  0  0  0  0
   -7.3400   14.8950   -0.0250 O   0  0  0  0  0  0  0  0  0  0  0  0
   -5.1110   14.8600   -0.8510 C   0  0  0  0  0  0  0  0  0  0  0  0
   -3.7470   14.6740   -0.5420 C   0  0  0  0  0  0  0  0  0  0  0  0
   -5.4840   14.9900   -2.1880 C   0  0  0  0  0  0  0  0  0  0  0  0
   -2.7750   14.6020   -1.5700 C   0  0  0  0  0  0  0  0  0  0  0  0
   -4.5250   14.9170   -3.1970 C   0  0  0  0  0  0  0  0  0  0  0  0
   -3.1710   14.7160   -2.9180 C   0  0  0  0  0  0  0  0  0  0  0  0
   -2.2690   14.6210   -3.9950 O   0  0  0  0  0  0  0  0  0  0  0  0
   -0.8820   14.7970   -4.0450 C   0  0  0  0  0  0  0  0  0  0  0  0
    0.0310   13.6940   -3.9820 C   0  0  0  0  0  0  0  0  0  0  0  0
   -0.4090   16.1050   -4.1840 C   0  0  0  0  0  0  0  0  0  0  0  0
   -0.4490   12.2550   -3.8530 C   0  0  0  0  0  0  0  0  0  0  0  0
    0.9460   16.3600   -4.2510 C   0  0  0  0  0  0  0  0  0  0  0  0
    1.4050   14.0020   -4.0570 C   0  0  0  0  0  0  0  0  0  0  0  0
    2.6720   12.8340   -4.0040 Cl  0  0  0  0  0  0  0  0  0  0  0  0
   -0.0690   11.4880   -2.5830 C   0  0  0  0  0  0  0  0  0  0  0  0
    1.8350   15.3070   -4.1860 C   0  0  0  0  0  0  0  0  0  0  0  0
    0.1220   12.2660   -1.4820 O   0  0  0  0  0  0  0  0  0  0  0  0
    0.0480   10.2730   -2.5050 O   0  0  0  0  0  0  0  0  0  0  0  0
  1  2  1  0
  2  3  2  0
  2  4  1  0
  4  5  2  0
  4  6  1  0
  5  7  1  0
  6  8  2  0
  7  9  2  0
  8  9  1  0
  9 10  1  0
 10 11  1  0
 11 12  2  0
 11 13  1  0
 12 14  1  0
 13 15  2  0
 12 16  1  0
 16 17  1  0
 14 18  1  0
 15 19  1  0
 16 19  2  0
 18 20  1  0
 18 21  2  0
M  END
