mac-x0326-mac-x0228
     RDKit          3D

 22 24  0  0  0  0  0  0  0  0999 V2000
   -6.1250   15.4800   -2.0180 Cl  0  0  0  0  0  0  0  0  0  0  0  0
   -4.5320   14.6290   -1.8180 C   0  0  1  0  0  0  0  0  0  0  0  0
   -3.4210   15.2430   -2.6980 C   0  0  2  0  0  0  0  0  0  0  0  0
   -4.2710   14.5190   -0.2880 C   0  0  2  0  0  0  0  0  0  0  0  0
   -3.1040   14.5790   -3.9930 C   0  0  0  0  0  0  0  0  0  0  0  0
   -2.1000   14.9970   -2.1790 C   0  0  0  0  0  0  0  0  0  0  0  0
   -2.7630   14.6120    0.2190 C   0  0  0  0  0  0  0  0  0  0  0  0
   -5.0810   13.2600    0.0680 C   0  0  0  0  0  0  0  0  0  0  0  0
   -5.1160   15.3390    0.6420 C   0  0  0  0  0  0  0  0  0  0  0  0
   -1.9760   13.8420   -3.9090 O   0  0  0  0  0  0  0  0  0  0  0  0
   -3.7100   14.6760   -5.0230 O   0  0  0  0  0  0  0  0  0  0  0  0
   -1.0900   15.0450   -3.1140 N   0  0  0  0  0  0  0  0  0  0  0  0
   -1.7700   14.7180   -0.9060 C   0  0  0  0  0  0  0  0  0  0  0  0
   -6.4680   13.6760   -0.0470 O   0  0  0  0  0  0  0  0  0  0  0  0
   -6.3370   14.7830    0.7160 C   0  0  0  0  0  0  0  0  0  0  0  0
    0.0470   14.7950   -2.5490 C   0  0  0  0  0  0  0  0  0  0  0  0
   -0.0620   14.5120   -0.8350 S   0  0  0  0  0  0  0  0  0  0  0  0
    1.3220   14.7520   -3.3480 C   0  0  0  0  0  0  0  0  0  0  0  0
    1.3450   13.4840   -4.2010 C   0  0  0  0  0  0  0  0  0  0  0  0
    1.1930   12.3080   -3.2890 C   0  0  0  0  0  0  0  0  0  0  0  0
    0.4900   11.2890   -3.8160 O   0  0  0  0  0  0  0  0  0  0  0  0
    1.6490   12.2470   -2.1730 O   0  0  0  0  0  0  0  0  0  0  0  0
  2  1  1  1
  2  3  1  0
  2  4  1  0
  3  5  1  6
  3  6  1  0
  4  7  1  6
  4  8  1  0
  4  9  1  0
  5 10  1  0
  5 11  2  0
  6 12  1  0
  6 13  2  0
  7 13  1  0
  8 14  1  0
  9 15  2  0
 14 15  1  0
 12 16  2  0
 13 17  1  0
 16 17  1  0
 16 18  1  0
 18 19  1  0
 19 20  1  0
 20 21  1  0
 20 22  2  0
M  END
