mac-x0179-mac-x0284
     RDKit          3D

 24 26  0  0  0  0  0  0  0  0999 V2000
   -0.1400   12.8090   -2.5630 N   0  0  0  0  0  0  0  0  0  0  0  0
    0.9760   12.5190   -3.2600 C   0  0  0  0  0  0  0  0  0  0  0  0
    1.9490   11.9720   -2.8250 O   0  0  0  0  0  0  0  0  0  0  0  0
   -0.6110   14.0080   -2.6710 C   0  0  0  0  0  0  0  0  0  0  0  0
    0.8870   12.9320   -4.7250 C   0  0  0  0  0  0  0  0  0  0  0  0
   -1.8700   14.5350   -2.1490 C   0  0  0  0  0  0  0  0  0  0  0  0
    0.1550   11.9900   -5.5550 N   0  0  0  0  0  0  0  0  0  0  0  0
   -2.1820   14.7670   -0.8070 C   0  0  0  0  0  0  0  0  0  0  0  0
   -2.7990   14.7930   -3.1460 C   0  0  0  0  0  0  0  0  0  0  0  0
   -2.4630   14.5610   -4.4520 O   0  0  0  0  0  0  0  0  0  0  0  0
    0.7670   11.4420   -6.6180 C   0  0  0  0  0  0  0  0  0  0  0  0
   -0.9310   11.2410   -5.1760 C   0  0  0  0  0  0  0  0  0  0  0  0
   -3.4620   15.2710   -0.4830 C   0  0  0  0  0  0  0  0  0  0  0  0
   -4.0510   15.2750   -2.8320 C   0  0  0  0  0  0  0  0  0  0  0  0
    1.8240   11.7440   -7.0640 O   0  0  0  0  0  0  0  0  0  0  0  0
   -1.6330   11.3330   -4.1900 O   0  0  0  0  0  0  0  0  0  0  0  0
   -3.8410   15.5460    0.9380 C   0  0  0  0  0  0  0  0  0  0  0  0
   -0.0760   10.3700   -7.1190 C   0  0  0  0  0  0  0  0  0  0  0  0
   -1.1250   10.2370   -6.2330 C   0  0  0  0  0  0  0  0  0  0  0  0
   -4.3830   15.5150   -1.5060 C   0  0  0  0  0  0  0  0  0  0  0  0
    0.0550    9.5770   -8.2380 C   0  0  0  0  0  0  0  0  0  0  0  0
   -2.1160    9.2920   -6.4180 C   0  0  0  0  0  0  0  0  0  0  0  0
   -0.9330    8.6120   -8.4520 C   0  0  0  0  0  0  0  0  0  0  0  0
   -2.0110    8.4690   -7.5500 C   0  0  0  0  0  0  0  0  0  0  0  0
  1  2  1  0
  2  3  2  0
  1  4  2  3
  2  5  1  0
  4  6  1  0
  5  7  1  0
  6  8  2  0
  6  9  1  0
  9 10  1  0
  7 11  1  0
  7 12  1  0
  8 13  1  0
  9 14  2  0
 11 15  2  0
 12 16  2  0
 13 17  1  0
 11 18  1  0
 12 19  1  0
 18 19  2  0
 13 20  2  0
 14 20  1  0
 18 21  1  0
 19 22  1  0
 21 23  2  0
 22 24  2  0
 23 24  1  0
M  END
