mac-x0255-diamond-x0524_0_A
     RDKit          3D

 32 35  0  0  0  0  0  0  0  0999 V2000
    0.9970   12.9910   -1.9380 O   0  0  0  0  0  0  0  0  0  0  0  0
    0.7200   12.2730   -3.0490 C   0  0  0  0  0  0  0  0  0  0  0  0
    0.1610   11.1860   -2.9700 O   0  0  0  0  0  0  0  0  0  0  0  0
    1.1530   12.9290   -4.3650 C   0  0  1  0  0  0  0  0  0  0  0  0
    0.9350   12.1490   -5.6780 C   0  0  0  0  0  0  0  0  0  0  0  0
    0.5400   14.2690   -4.6200 C   0  0  0  0  0  0  0  0  0  0  0  0
   -0.2230   11.1630   -5.7890 C   0  0  0  0  0  0  0  0  0  0  0  0
    1.1220   15.4940   -4.7820 C   0  0  0  0  0  0  0  0  0  0  0  0
   -1.1670   14.3600   -4.7840 S   0  0  0  0  0  0  0  0  0  0  0  0
   -0.0160   10.3510   -6.9790 N   0  0  0  0  0  0  0  0  0  0  0  0
    0.1850   16.5250   -5.0740 C   0  0  0  0  0  0  0  0  0  0  0  0
   -1.1210   16.0330   -5.1060 C   0  0  0  0  0  0  0  0  0  0  0  0
   -0.7830    9.3420   -7.2200 C   0  0  0  0  0  0  0  0  0  0  0  0
    0.3950   17.8870   -5.3260 C   0  0  0  0  0  0  0  0  0  0  0  0
   -2.2160   16.8590   -5.3840 C   0  0  0  0  0  0  0  0  0  0  0  0
   -0.5810    8.5450   -8.3160 N   0  0  0  0  0  0  0  0  0  0  0  0
   -1.9480    8.9540   -6.3230 C   0  0  0  0  0  0  0  0  0  0  0  0
   -0.6940   18.7060   -5.6100 C   0  0  0  0  0  0  0  0  0  0  0  0
   -1.9740   18.2040   -5.6400 C   0  0  0  0  0  0  0  0  0  0  0  0
    0.4760    8.6020   -9.2360 C   0  0  0  0  0  0  0  0  0  0  0  0
    1.6170    7.8200   -9.0130 C   0  0  0  0  0  0  0  0  0  0  0  0
    0.4550    9.4020  -10.3770 C   0  0  0  0  0  0  0  0  0  0  0  0
    2.6950    7.8390   -9.9050 C   0  0  0  0  0  0  0  0  0  0  0  0
    1.5280    9.4220  -11.2680 C   0  0  0  0  0  0  0  0  0  0  0  0
    2.6630    8.6430  -11.0490 C   0  0  0  0  0  0  0  0  0  0  0  0
    3.7270    8.6830  -11.9700 N   0  0  0  0  0  0  0  0  0  0  0  0
    4.0090    9.5330  -13.0580 C   0  0  0  0  0  0  0  0  0  0  0  0
    3.2330   10.6870  -13.2650 C   0  0  0  0  0  0  0  0  0  0  0  0
    5.0480    9.2740  -13.9560 C   0  0  0  0  0  0  0  0  0  0  0  0
    3.4910   11.5470  -14.3320 C   0  0  0  0  0  0  0  0  0  0  0  0
    5.3090   10.1310  -15.0240 C   0  0  0  0  0  0  0  0  0  0  0  0
    4.5300   11.2680  -15.2110 C   0  0  0  0  0  0  0  0  0  0  0  0
  1  2  1  0
  2  3  2  0
  2  4  1  0
  4  5  1  6
  4  6  1  0
  5  7  1  0
  6  8  2  0
  6  9  1  0
  7 10  1  0
  8 11  1  0
  9 12  1  0
 11 12  2  0
 10 13  2  3
 11 14  1  0
 12 15  1  0
 13 16  1  0
 13 17  1  0
 14 18  2  0
 15 19  2  0
 18 19  1  0
 16 20  1  0
 20 21  2  0
 20 22  1  0
 21 23  1  0
 22 24  2  0
 23 25  2  0
 24 25  1  0
 25 26  1  0
 26 27  1  0
 27 28  2  0
 27 29  1  0
 28 30  1  0
 29 31  2  0
 30 32  2  0
 31 32  1  0
M  END
