mac-x0321-diamond-x0724_0_A
     RDKit          3D

 17 18  0  0  0  0  0  0  0  0999 V2000
   -3.8180   15.3580    1.4050 Cl  0  0  0  0  0  0  0  0  0  0  0  0
   -4.4230   13.9570    0.4590 C   0  0  2  0  0  0  0  0  0  0  0  0
   -3.3950   13.6690   -0.6410 C   0  0  0  0  0  0  0  0  0  0  0  0
   -5.8700   14.2420   -0.0610 C   0  0  1  0  0  0  0  0  0  0  0  0
   -3.2840   14.8700   -1.5560 C   0  0  1  0  0  0  0  0  0  0  0  0
   -5.7960   15.0200   -1.3990 C   0  0  0  0  0  0  0  0  0  0  0  0
   -6.8170   13.1050   -0.2280 N   0  0  0  0  0  0  0  0  0  0  0  0
   -6.6030   14.9120    1.0910 C   0  0  0  0  0  0  0  0  0  0  0  0
   -2.2180   14.6410   -2.6530 C   0  0  0  0  0  0  0  0  0  0  0  0
   -4.6350   15.2840   -2.0640 C   0  0  0  0  0  0  0  0  0  0  0  0
   -7.2340   13.8660    1.9420 C   0  0  2  0  0  0  0  0  0  0  0  0
   -7.9260   13.2170    0.7710 C   0  0  0  0  0  0  0  0  0  0  0  0
   -0.9650   14.5200   -2.1490 O   0  0  0  0  0  0  0  0  0  0  0  0
   -2.4230   14.5700   -3.8560 O   0  0  0  0  0  0  0  0  0  0  0  0
   -8.0930   14.4770    3.0790 C   0  0  0  0  0  0  0  0  0  0  0  0
   -8.4470   13.5520    4.1640 N   0  0  0  0  0  0  0  0  0  0  0  0
   -8.4560   14.1900    5.4820 C   0  0  0  0  0  0  0  0  0  0  0  0
  2  1  1  6
  2  3  1  0
  2  4  1  0
  3  5  1  0
  4  6  1  6
  4  7  1  0
  4  8  1  0
  5  9  1  6
  5 10  1  0
  6 10  2  0
  8 11  1  0
  7 12  1  0
 11 12  1  0
  9 13  1  0
  9 14  2  0
 11 15  1  1
 15 16  1  0
 16 17  1  0
M  END
