mac-x0572-diamond-x0895_1_A
     RDKit          3D

 15 16  0  0  0  0  0  0  0  0999 V2000
   -8.3390   14.5030    3.1550 C   0  0  0  0  0  0  0  0  0  0  0  0
   -7.5640   14.6200    1.8700 C   0  0  0  0  0  0  0  0  0  0  0  0
   -6.2580   14.9270    2.0640 N   0  0  0  0  0  0  0  0  0  0  0  0
   -8.1100   14.4490    0.6550 C   0  0  0  0  0  0  0  0  0  0  0  0
   -9.4380   14.1480    0.4470 O   0  0  0  0  0  0  0  0  0  0  0  0
   -7.2210   14.5870   -0.5330 C   0  0  0  0  0  0  0  0  0  0  0  0
   -5.4360   14.8260    1.0860 C   0  0  0  0  0  0  0  0  0  0  0  0
   -7.7130   14.8470   -1.6280 O   0  0  0  0  0  0  0  0  0  0  0  0
   -5.7520   14.3780   -0.2910 C   0  0  2  0  0  0  0  0  0  0  0  0
   -4.0530   15.2090    1.3640 C   0  0  0  0  0  0  0  0  0  0  0  0
   -3.8730   15.6420    2.4390 O   0  0  0  0  0  0  0  0  0  0  0  0
   -2.9950   15.0710    0.3030 C   0  0  0  0  0  0  0  0  0  0  0  0
   -4.8180   14.9960   -1.3100 C   0  0  0  0  0  0  0  0  0  0  0  0
   -1.8300   14.7920    0.5460 O   0  0  0  0  0  0  0  0  0  0  0  0
   -3.5420   15.3080   -1.0540 C   0  0  0  0  0  0  0  0  0  0  0  0
  1  2  1  0
  2  3  1  0
  2  4  2  0
  4  5  1  0
  4  6  1  0
  3  7  2  0
  6  8  2  0
  6  9  1  0
  7  9  1  0
  7 10  1  0
 10 11  2  0
 10 12  1  0
  9 13  1  6
 12 14  2  0
 12 15  1  0
 13 15  2  0
M  END
