mac-x0263-mac-x0328
     RDKit          3D

 18 19  0  0  0  0  0  0  0  0999 V2000
  -11.4180   14.4120    2.4960 O   0  0  0  0  0  0  0  0  0  0  0  0
  -10.8120   15.5660    2.8130 C   0  0  0  0  0  0  0  0  0  0  0  0
  -11.3310   16.3240    3.6220 O   0  0  0  0  0  0  0  0  0  0  0  0
   -9.5160   15.7580    2.0800 C   0  0  0  0  0  0  0  0  0  0  0  0
   -8.9910   14.4850    1.4540 C   0  0  0  0  0  0  0  0  0  0  0  0
   -7.5890   14.6340    0.9710 C   0  0  0  0  0  0  0  0  0  0  0  0
   -7.2710   14.6950   -0.3650 N   0  0  0  0  0  0  0  0  0  0  0  0
   -6.5110   14.7280    1.7070 N   0  0  0  0  0  0  0  0  0  0  0  0
   -5.9130   14.8200   -0.4690 C   0  0  0  0  0  0  0  0  0  0  0  0
   -5.4630   14.8410    0.8330 C   0  0  0  0  0  0  0  0  0  0  0  0
   -5.0810   14.9050   -1.5710 C   0  0  0  0  0  0  0  0  0  0  0  0
   -4.0940   14.9630    1.0800 C   0  0  0  0  0  0  0  0  0  0  0  0
   -5.7250   14.8700   -2.7600 O   0  0  0  0  0  0  0  0  0  0  0  0
   -3.6690   14.9960   -1.3220 C   0  0  0  0  0  0  0  0  0  0  0  0
   -3.2130   15.0340   -0.0030 C   0  0  0  0  0  0  0  0  0  0  0  0
   -2.6000   15.0330   -2.3720 C   0  0  0  0  0  0  0  0  0  0  0  0
   -2.9820   15.0930   -3.6560 O   0  0  0  0  0  0  0  0  0  0  0  0
   -1.4080   14.9780   -2.0800 O   0  0  0  0  0  0  0  0  0  0  0  0
  1  2  1  0
  2  3  2  0
  2  4  1  0
  4  5  1  0
  5  6  1  0
  6  7  1  0
  6  8  2  0
  7  9  1  0
  8 10  1  0
  9 10  2  0
  9 11  1  0
 10 12  1  0
 11 13  1  0
 11 14  2  0
 12 15  2  0
 14 15  1  0
 14 16  1  0
 16 17  1  0
 16 18  2  0
M  END
