mac-x0404-diamond-x0724_0_A
     RDKit          3D

 30 33  0  0  0  0  0  0  0  0999 V2000
    1.2760   12.9850   -2.0880 O   0  0  0  0  0  0  0  0  0  0  0  0
    1.0940   12.2010   -3.1800 C   0  0  0  0  0  0  0  0  0  0  0  0
    0.5710   11.0980   -3.0890 O   0  0  0  0  0  0  0  0  0  0  0  0
    1.5980   12.8090   -4.4970 C   0  0  0  0  0  0  0  0  0  0  0  0
    1.5280   14.2490   -4.4960 O   0  0  0  0  0  0  0  0  0  0  0  0
    0.2420   14.7440   -4.5460 C   0  0  0  0  0  0  0  0  0  0  0  0
   -0.0100   16.0410   -5.0210 C   0  0  0  0  0  0  0  0  0  0  0  0
   -0.7920   13.9640   -4.1140 C   0  0  0  0  0  0  0  0  0  0  0  0
   -1.3210   16.5480   -5.0590 C   0  0  0  0  0  0  0  0  0  0  0  0
   -2.0690   14.4590   -4.1420 C   0  0  0  0  0  0  0  0  0  0  0  0
    1.0130   16.8480   -5.4570 C   0  0  0  0  0  0  0  0  0  0  0  0
   -3.1160   13.5730   -3.6390 C   0  0  0  0  0  0  0  0  0  0  0  0
   -2.3540   15.7390   -4.6160 C   0  0  0  0  0  0  0  0  0  0  0  0
   -1.5530   17.8450   -5.5320 C   0  0  0  0  0  0  0  0  0  0  0  0
    0.7950   18.1380   -5.9200 C   0  0  0  0  0  0  0  0  0  0  0  0
   -0.4970   18.6390   -5.9580 C   0  0  0  0  0  0  0  0  0  0  0  0
   -3.7370   13.9710   -2.3260 C   0  0  0  0  0  0  0  0  0  0  0  0
   -3.1380   14.4620   -1.1230 C   0  0  0  0  0  0  0  0  0  0  0  0
   -5.0820   13.7900   -2.3830 C   0  0  0  0  0  0  0  0  0  0  0  0
   -3.9740   14.7320   -0.0040 C   0  0  0  0  0  0  0  0  0  0  0  0
   -5.8840   14.0440   -1.3230 C   0  0  0  0  0  0  0  0  0  0  0  0
   -5.3680   14.5000   -0.1360 C   0  0  0  0  0  0  0  0  0  0  0  0
   -6.3590   14.6750    0.8460 N   0  0  0  0  0  0  0  0  0  0  0  0
   -7.6500   14.6340    0.4230 N   0  0  0  0  0  0  0  0  0  0  0  0
   -6.2840   14.8730    2.1990 C   0  0  0  0  0  0  0  0  0  0  0  0
   -7.5870   14.9660    2.6710 C   0  0  0  0  0  0  0  0  0  0  0  0
   -8.3750   14.8080    1.5210 C   0  0  0  0  0  0  0  0  0  0  0  0
   -8.0540   15.1830    4.0580 C   0  0  0  0  0  0  0  0  0  0  0  0
   -8.8320   14.0200    4.4710 N   0  0  0  0  0  0  0  0  0  0  0  0
   -8.6860   13.7880    5.9000 C   0  0  0  0  0  0  0  0  0  0  0  0
  1  2  1  0
  2  3  2  0
  2  4  1  0
  4  5  1  0
  5  6  1  0
  6  7  2  0
  6  8  1  0
  7  9  1  0
  8 10  2  0
  7 11  1  0
 10 12  1  0
  9 13  2  0
 10 13  1  0
  9 14  1  0
 11 15  2  0
 14 16  2  0
 15 16  1  0
 12 17  1  0
 17 18  2  0
 17 19  1  0
 18 20  1  0
 19 21  2  0
 20 22  2  0
 21 22  1  0
 22 23  1  0
 23 24  1  0
 23 25  1  0
 25 26  2  0
 24 27  2  0
 26 27  1  0
 26 28  1  0
 28 29  1  0
 29 30  1  0
M  END
