mac-x0326-diamond-x0766_0_A
     RDKit          3D

 19 21  0  0  0  0  0  0  0  0999 V2000
   -4.6760   14.8610   -2.3630 Cl  0  0  0  0  0  0  0  0  0  0  0  0
   -2.9080   14.6880   -2.2590 C   0  0  2  0  0  0  0  0  0  0  0  0
   -2.0610   14.3910   -3.5570 C   0  0  2  0  0  0  0  0  0  0  0  0
   -2.3920   13.8480   -1.1210 C   0  0  0  0  0  0  0  0  0  0  0  0
   -1.2600   13.8740   -0.3870 C   0  0  0  0  0  0  0  0  0  0  0  0
   -0.6460   13.6970   -3.5010 C   0  0  1  0  0  0  0  0  0  0  0  0
   -1.6480   15.7240   -4.2850 C   0  0  0  0  0  0  0  0  0  0  0  0
   -0.2230   12.2920   -3.0250 C   0  0  0  0  0  0  0  0  0  0  0  0
   -0.0940   14.8250   -0.4590 C   0  0  1  0  0  0  0  0  0  0  0  0
    0.0720   14.1160   -4.7950 C   0  0  0  0  0  0  0  0  0  0  0  0
   -0.2110   15.5980   -4.8290 C   0  0  0  0  0  0  0  0  0  0  0  0
   -0.8630   11.8430   -1.8330 O   0  0  0  0  0  0  0  0  0  0  0  0
   -0.3820   11.2860   -3.9660 O   0  0  0  0  0  0  0  0  0  0  0  0
    1.1750   12.4080   -2.6310 C   0  0  0  0  0  0  0  0  0  0  0  0
    1.1760   14.6500   -1.4230 C   0  0  1  0  0  0  0  0  0  0  0  0
   -0.6940   16.0640   -1.0620 C   0  0  0  0  0  0  0  0  0  0  0  0
    1.7650   13.3850   -1.9610 C   0  0  0  0  0  0  0  0  0  0  0  0
    0.8320   15.4530   -2.5940 N   0  0  0  0  0  0  0  0  0  0  0  0
   -0.1360   16.3460   -2.2450 C   0  0  0  0  0  0  0  0  0  0  0  0
  2  1  1  6
  2  3  1  0
  2  4  1  0
  4  5  2  0
  3  6  1  0
  3  7  1  1
  6  8  1  0
  9  5  1  6
  6 10  1  6
  7 11  1  0
 10 11  1  0
  8 12  1  0
  8 13  1  0
  8 14  1  0
  9 15  1  0
  9 16  1  0
 14 17  2  0
 15 17  1  6
 15 18  1  0
 16 19  2  0
 18 19  1  0
M  END
