mac-x0375-mac-x0344
     RDKit          3D

 12 12  0  0  0  0  0  0  0  0999 V2000
    0.7160   13.4510   -2.7260 O   0  0  0  0  0  0  0  0  0  0  0  0
    1.1400   12.5430   -3.6980 C   0  0  0  0  0  0  0  0  0  0  0  0
    0.8800   11.2530   -3.2210 O   0  0  0  0  0  0  0  0  0  0  0  0
    0.4460   12.8120   -5.0500 C   0  0  0  0  0  0  0  0  0  0  0  0
    2.5200   12.7270   -3.8430 O   0  0  0  0  0  0  0  0  0  0  0  0
    0.6180   11.6580   -5.8800 O   0  0  0  0  0  0  0  0  0  0  0  0
   -0.4370   10.8040   -6.0340 C   0  0  0  0  0  0  0  0  0  0  0  0
   -0.4130    9.6340   -6.7860 C   0  0  0  0  0  0  0  0  0  0  0  0
   -1.6200   11.1650   -5.3710 C   0  0  0  0  0  0  0  0  0  0  0  0
   -1.5470    8.8310   -6.8780 C   0  0  0  0  0  0  0  0  0  0  0  0
   -2.7550   10.3610   -5.4650 C   0  0  0  0  0  0  0  0  0  0  0  0
   -2.7230    9.1940   -6.2170 C   0  0  0  0  0  0  0  0  0  0  0  0
  2  1  1  0
  2  3  1  0
  2  4  1  0
  2  5  1  0
  4  6  1  0
  6  7  1  0
  7  8  2  0
  7  9  1  0
  8 10  1  0
  9 11  2  0
 10 12  2  0
 11 12  1  0
M  END
