mac-x0385-mac-x0159
     RDKit          3D

 20 22  0  0  0  0  0  0  0  0999 V2000
   -5.0170   15.3740   -0.7490 C   0  0  0  0  0  0  0  0  0  0  0  0
   -3.5180   15.2550   -0.4350 C   0  0  0  0  0  0  0  0  0  0  0  0
   -2.5300   15.1490   -1.3840 C   0  0  2  0  0  0  0  0  0  0  0  0
   -3.1580   15.2420    0.9020 C   0  0  0  0  0  0  0  0  0  0  0  0
   -4.1720   15.3510    1.9090 N   0  0  0  0  0  0  0  0  0  0  0  0
   -0.8270   14.6060   -3.2860 C   0  0  0  0  0  0  0  0  0  0  0  0
   -1.9040   15.1260    1.2410 C   0  0  1  0  0  0  0  0  0  0  0  0
   -1.2730   15.0430   -0.9650 N   0  0  0  0  0  0  0  0  0  0  0  0
   -0.9840   15.0400    0.3220 C   0  0  0  0  0  0  0  0  0  0  0  0
   -0.3060   15.8360   -3.9780 C   0  0  0  0  0  0  0  0  0  0  0  0
   -1.9210   15.0530    0.1600 C   0  0  1  0  0  0  0  0  0  0  0  0
    0.0270   14.7520    0.8440 C   0  0  0  0  0  0  0  0  0  0  0  0
    0.4550   14.9460    0.7960 C   0  0  0  0  0  0  0  0  0  0  0  0
    0.9720   16.2990   -3.9610 C   0  0  0  0  0  0  0  0  0  0  0  0
   -1.1200   16.6100   -4.7920 N   0  0  0  0  0  0  0  0  0  0  0  0
    0.1340   14.6900   -0.4610 N   0  0  0  0  0  0  0  0  0  0  0  0
    0.0810   14.7210    0.1910 C   0  0  0  0  0  0  0  0  0  0  0  0
   -0.4750   17.6310   -5.3200 C   0  0  0  0  0  0  0  0  0  0  0  0
    1.0840   17.7090   -4.8760 S   0  0  0  0  0  0  0  0  0  0  0  0
   -1.1140   18.5970   -6.2780 C   0  0  0  0  0  0  0  0  0  0  0  0
  1  2  1  0
  2  3  1  0
  2  4  1  0
  4  5  1  0
  3  6  1  1
  4  7  1  0
  3  8  1  0
  7  9  1  6
  6 10  1  0
  7 11  1  0
 11  8  1  6
  7 12  1  0
  9 13  1  0
 10 14  2  0
 10 15  1  0
 11 16  1  0
 12 17  2  0
 16 17  1  0
 15 18  2  0
 14 19  1  0
 18 19  1  0
 18 20  1  0
M  END
