mac-x0204-mac-x0371
     RDKit          3D

 21 22  0  0  0  0  0  0  0  0999 V2000
   -0.1750   12.3540   -1.8050 O   0  0  0  0  0  0  0  0  0  0  0  0
   -0.2220   13.6770   -2.1530 C   0  0  0  0  0  0  0  0  0  0  0  0
    0.5520   14.5780   -1.8540 O   0  0  0  0  0  0  0  0  0  0  0  0
    0.1560   11.3610   -2.7170 C   0  0  0  0  0  0  0  0  0  0  0  0
    0.3790   10.1930   -2.4220 O   0  0  0  0  0  0  0  0  0  0  0  0
    0.1940   11.8640   -4.1770 C   0  0  0  0  0  0  0  0  0  0  0  0
   -1.4150   13.9580   -3.0080 C   0  0  0  0  0  0  0  0  0  0  0  0
   -1.5280   15.2090   -3.6340 C   0  0  0  0  0  0  0  0  0  0  0  0
   -2.4390   13.0390   -3.2310 C   0  0  0  0  0  0  0  0  0  0  0  0
    0.5480   13.3150   -4.3710 C   0  0  0  0  0  0  0  0  0  0  0  0
   -2.6290   15.4920   -4.4370 C   0  0  0  0  0  0  0  0  0  0  0  0
   -3.5280   13.2850   -4.0100 N   0  0  0  0  0  0  0  0  0  0  0  0
   -0.3290   14.1590   -5.0590 C   0  0  0  0  0  0  0  0  0  0  0  0
    1.7290   13.8780   -3.8850 C   0  0  0  0  0  0  0  0  0  0  0  0
   -2.7690   16.6990   -5.0650 O   0  0  0  0  0  0  0  0  0  0  0  0
    2.9220   12.9540   -3.0500 Cl  0  0  0  0  0  0  0  0  0  0  0  0
   -1.7960   13.5230   -5.7200 Cl  0  0  0  0  0  0  0  0  0  0  0  0
   -3.5990   14.5110   -4.5980 C   0  0  0  0  0  0  0  0  0  0  0  0
   -0.0490   15.5240   -5.2280 C   0  0  0  0  0  0  0  0  0  0  0  0
    1.9960   15.2250   -4.0580 C   0  0  0  0  0  0  0  0  0  0  0  0
    1.1160   16.0600   -4.7240 C   0  0  0  0  0  0  0  0  0  0  0  0
  1  2  1  0
  2  3  2  0
  1  4  1  0
  4  5  2  0
  4  6  1  0
  2  7  1  0
  7  8  2  0
  7  9  1  0
  6 10  1  0
  8 11  1  0
  9 12  2  0
 10 13  2  0
 10 14  1  0
 11 15  1  0
 14 16  1  0
 13 17  1  0
 11 18  2  0
 12 18  1  0
 13 19  1  0
 14 20  2  0
 19 21  2  0
 20 21  1  0
M  END
