mac-x0565-diamond-x0950_1_A
     RDKit          3D

 19 20  0  0  0  0  0  0  0  0999 V2000
   -5.4100   15.1650    0.7890 O   0  0  0  0  0  0  0  0  0  0  0  0
   -5.9520   15.0490   -0.4340 C   0  0  0  0  0  0  0  0  0  0  0  0
   -7.1610   15.0100   -0.5890 O   0  0  0  0  0  0  0  0  0  0  0  0
   -4.9250   14.9710   -1.5100 C   0  0  0  0  0  0  0  0  0  0  0  0
   -3.5680   14.9940   -1.1510 C   0  0  0  0  0  0  0  0  0  0  0  0
   -5.2900   14.8710   -2.8670 C   0  0  0  0  0  0  0  0  0  0  0  0
   -2.6290   14.9090   -2.1720 C   0  0  0  0  0  0  0  0  0  0  0  0
   -4.3130   14.7850   -3.8740 C   0  0  0  0  0  0  0  0  0  0  0  0
   -2.9870   14.8020   -3.4940 C   0  0  0  0  0  0  0  0  0  0  0  0
   -1.2710   14.9180   -2.0360 O   0  0  0  0  0  0  0  0  0  0  0  0
   -1.8960   14.7190   -4.3240 O   0  0  0  0  0  0  0  0  0  0  0  0
   -0.8810   15.2050   -3.4100 C   0  0  2  0  0  0  0  0  0  0  0  0
    0.5240   14.6680   -3.6920 C   0  0  0  0  0  0  0  0  0  0  0  0
    0.7040   13.8100   -4.9370 C   0  0  0  0  0  0  0  0  0  0  0  0
    1.1970   12.4000   -4.6520 C   0  0  2  0  0  0  0  0  0  0  0  0
    0.6160   11.5080   -5.5920 O   0  0  0  0  0  0  0  0  0  0  0  0
    0.9340   11.9470   -3.2020 C   0  0  0  0  0  0  0  0  0  0  0  0
    0.1880   11.0590   -2.8290 O   0  0  0  0  0  0  0  0  0  0  0  0
    1.6540   12.6630   -2.3030 O   0  0  0  0  0  0  0  0  0  0  0  0
  1  2  1  0
  2  3  2  0
  2  4  1  0
  4  5  2  0
  4  6  1  0
  5  7  1  0
  6  8  2  0
  7  9  2  0
  8  9  1  0
  7 10  1  0
  9 11  1  0
 10 12  1  0
 11 12  1  0
 12 13  1  6
 13 14  1  0
 14 15  1  0
 15 16  1  6
 15 17  1  0
 17 18  2  0
 17 19  1  0
M  END
