mac-x0360-mac-x0373
     RDKit          3D

 28 30  0  0  0  0  0  0  0  0999 V2000
    0.1830   12.6010   -1.5020 O   0  0  0  0  0  0  0  0  0  0  0  0
    0.4220   13.7960   -2.1280 C   0  0  0  0  0  0  0  0  0  0  0  0
    1.0450   14.7060   -1.5970 O   0  0  0  0  0  0  0  0  0  0  0  0
   -0.1650   13.8830   -3.5330 C   0  0  1  0  0  0  0  0  0  0  0  0
   -0.9690   12.7220   -4.0340 C   0  0  0  0  0  0  0  0  0  0  0  0
   -0.9780   15.1490   -3.6460 C   0  0  0  0  0  0  0  0  0  0  0  0
   -0.8010   12.2820   -5.3400 C   0  0  0  0  0  0  0  0  0  0  0  0
   -1.9020   12.0670   -3.2050 C   0  0  0  0  0  0  0  0  0  0  0  0
   -2.1440   15.1510   -2.7160 C   0  0  0  0  0  0  0  0  0  0  0  0
   -1.5360   11.2130   -5.8280 C   0  0  0  0  0  0  0  0  0  0  0  0
   -2.6380   10.9930   -3.6960 C   0  0  0  0  0  0  0  0  0  0  0  0
   -3.4260   15.4870   -3.1530 C   0  0  0  0  0  0  0  0  0  0  0  0
   -1.9280   14.8160   -1.3850 C   0  0  0  0  0  0  0  0  0  0  0  0
   -2.4540   10.5670   -5.0080 C   0  0  0  0  0  0  0  0  0  0  0  0
   -4.4880   15.5000   -2.2670 C   0  0  0  0  0  0  0  0  0  0  0  0
   -2.9790   14.8350   -0.5360 C   0  0  0  0  0  0  0  0  0  0  0  0
   -2.8700   14.5110    0.8240 N   0  0  0  0  0  0  0  0  0  0  0  0
   -4.2590   15.1780   -0.9600 C   0  0  0  0  0  0  0  0  0  0  0  0
   -4.3180   14.4980    1.1520 S   0  0  0  0  0  0  0  0  0  0  0  0
   -5.2090   15.5830    0.8170 O   0  0  0  0  0  0  0  0  0  0  0  0
   -5.0500   13.0660    0.3980 C   0  0  0  0  0  0  0  0  0  0  0  0
   -4.6100   12.4100   -0.7800 C   0  0  0  0  0  0  0  0  0  0  0  0
   -6.1460   12.6310    1.0960 C   0  0  0  0  0  0  0  0  0  0  0  0
   -5.3480   11.2900   -1.2090 C   0  0  0  0  0  0  0  0  0  0  0  0
   -6.8440   11.5370    0.6540 C   0  0  0  0  0  0  0  0  0  0  0  0
   -8.2080   11.0280    1.5600 Cl  0  0  0  0  0  0  0  0  0  0  0  0
   -4.9340   10.3910   -2.6150 Cl  0  0  0  0  0  0  0  0  0  0  0  0
   -6.4600   10.8600   -0.4930 C   0  0  0  0  0  0  0  0  0  0  0  0
  1  2  1  0
  2  3  2  0
  2  4  1  0
  4  5  1  0
  4  6  1  1
  5  7  2  0
  5  8  1  0
  6  9  1  0
  7 10  1  0
  8 11  2  0
  9 12  2  0
  9 13  1  0
 10 14  2  0
 11 14  1  0
 12 15  1  0
 13 16  2  0
 16 17  1  0
 15 18  2  0
 16 18  1  0
 17 19  2  0
 19 20  2  0
 19 21  1  0
 21 22  2  0
 21 23  1  0
 22 24  1  0
 23 25  2  0
 25 26  1  0
 24 27  1  0
 24 28  2  0
 25 28  1  0
M  END
