mac-x0380-mac-x0226
     RDKit          3D

 31 34  0  0  0  0  0  0  0  0999 V2000
   -2.1790   15.8120   -3.4910 O   0  0  0  0  0  0  0  0  0  0  0  0
   -2.6930   14.6540   -2.9270 C   0  0  0  0  0  0  0  0  0  0  0  0
   -3.5540   14.2120   -3.9560 O   0  0  0  0  0  0  0  0  0  0  0  0
   -1.5240   13.6830   -2.7380 C   0  0  0  0  0  0  0  0  0  0  0  0
   -3.5150   14.7940   -1.6390 C   0  0  0  0  0  0  0  0  0  0  0  0
   -0.2300   14.3900   -2.3160 C   0  0  0  0  0  0  0  0  0  0  0  0
   -4.9150   14.8870   -1.6900 C   0  0  0  0  0  0  0  0  0  0  0  0
   -2.9050   14.8120   -0.3660 C   0  0  0  0  0  0  0  0  0  0  0  0
    0.5680   13.5720   -1.3180 C   0  0  0  0  0  0  0  0  0  0  0  0
   -5.6830   14.9730   -0.5270 C   0  0  0  0  0  0  0  0  0  0  0  0
   -3.6710   14.9010    0.8070 C   0  0  0  0  0  0  0  0  0  0  0  0
    1.2920   12.5590   -2.0240 O   0  0  0  0  0  0  0  0  0  0  0  0
   -5.0670   14.9720    0.7260 C   0  0  0  0  0  0  0  0  0  0  0  0
   -7.4470   15.0660   -0.6950 S   0  0  0  0  0  0  0  0  0  0  0  0
    0.5820   11.5900   -2.6700 C   0  0  0  0  0  0  0  0  0  0  0  0
   -5.8100   15.0290    1.9230 N   0  0  0  0  0  0  0  0  0  0  0  0
   -7.8350   14.1420    0.8010 C   0  0  0  0  0  0  0  0  0  0  0  0
   -0.0230   10.6720   -2.1070 O   0  0  0  0  0  0  0  0  0  0  0  0
   -7.1410   14.6890    2.0180 C   0  0  0  0  0  0  0  0  0  0  0  0
    0.6560   11.6960   -4.1160 C   0  0  0  0  0  0  0  0  0  0  0  0
   -7.7540   14.8430    3.0810 O   0  0  0  0  0  0  0  0  0  0  0  0
    1.4100   12.5910   -4.9050 C   0  0  0  0  0  0  0  0  0  0  0  0
    0.0050   10.9090   -5.0500 C   0  0  0  0  0  0  0  0  0  0  0  0
    1.2590   12.3770   -6.2150 N   0  0  0  0  0  0  0  0  0  0  0  0
    0.3940   11.3270   -6.3020 N   0  0  0  0  0  0  0  0  0  0  0  0
   -0.0030   10.7710   -7.5580 C   0  0  0  0  0  0  0  0  0  0  0  0
   -1.1760   10.0220   -7.6540 C   0  0  0  0  0  0  0  0  0  0  0  0
    0.7640   10.9500   -8.7010 C   0  0  0  0  0  0  0  0  0  0  0  0
   -1.5560    9.4700   -8.8860 C   0  0  0  0  0  0  0  0  0  0  0  0
    0.3930   10.4060   -9.9270 C   0  0  0  0  0  0  0  0  0  0  0  0
   -0.7710    9.6640  -10.0200 C   0  0  0  0  0  0  0  0  0  0  0  0
  2  1  1  0
  2  3  1  0
  2  4  1  0
  2  5  1  0
  4  6  1  0
  5  7  2  0
  5  8  1  0
  6  9  1  0
  7 10  1  0
  8 11  2  0
  9 12  1  0
 10 13  2  0
 11 13  1  0
 10 14  1  0
 12 15  1  0
 13 16  1  0
 14 17  1  0
 15 18  2  0
 16 19  1  0
 17 19  1  0
 15 20  1  0
 19 21  2  0
 20 22  1  0
 20 23  2  0
 22 24  2  0
 23 25  1  0
 24 25  1  0
 25 26  1  0
 26 27  2  0
 26 28  1  0
 27 29  1  0
 28 30  2  0
 29 31  2  0
 30 31  1  0
M  END
