mac-x0212-mac-x0472
     RDKit          3D

 27 29  0  0  0  0  0  0  0  0999 V2000
   -6.6160   12.8780    1.3370 C   0  0  0  0  0  0  0  0  0  0  0  0
   -7.7670   14.1910    0.9490 S   0  0  0  0  0  0  0  0  0  0  0  0
   -8.0130   14.9820    2.1330 O   0  0  0  0  0  0  0  0  0  0  0  0
   -8.8610   13.6090    0.2180 O   0  0  0  0  0  0  0  0  0  0  0  0
   -7.0170   15.1240   -0.2230 N   0  0  0  0  0  0  0  0  0  0  0  0
   -5.7000   14.9240   -0.6710 C   0  0  0  0  0  0  0  0  0  0  0  0
   -4.8150   14.0880   -0.0440 C   0  0  0  0  0  0  0  0  0  0  0  0
   -5.3140   15.6220   -1.8060 C   0  0  0  0  0  0  0  0  0  0  0  0
   -3.5460   13.9680   -0.5560 C   0  0  0  0  0  0  0  0  0  0  0  0
   -4.0200   15.5130   -2.3340 C   0  0  0  0  0  0  0  0  0  0  0  0
   -3.1160   14.6780   -1.6950 C   0  0  0  0  0  0  0  0  0  0  0  0
   -1.6730   14.3660   -1.9900 C   0  0  2  0  0  0  0  0  0  0  0  0
   -0.8290   15.3590   -2.5270 O   0  0  0  0  0  0  0  0  0  0  0  0
   -1.7110   13.1520   -2.7710 N   0  0  0  0  0  0  0  0  0  0  0  0
   -1.5590   14.3320   -0.4600 C   0  0  0  0  0  0  0  0  0  0  0  0
   -2.9670   13.1080   -3.6380 S   0  0  2  0  0  0  0  0  0  0  0  0
   -0.6770   13.8840    0.4050 N   0  0  0  0  0  0  0  0  0  0  0  0
   -2.9560   15.0620    0.3010 S   0  0  0  0  0  0  0  0  0  0  0  0
   -3.7260   14.2620   -4.0800 O   0  0  0  0  0  0  0  0  0  0  0  0
   -4.0760   11.9700   -2.8950 C   0  0  0  0  0  0  0  0  0  0  0  0
   -2.2810   14.6880    1.7770 C   0  0  0  0  0  0  0  0  0  0  0  0
   -1.1050   14.0960    1.7060 N   0  0  0  0  0  0  0  0  0  0  0  0
   -3.7500   10.6300   -3.0150 C   0  0  0  0  0  0  0  0  0  0  0  0
   -5.2230   12.3920   -2.2220 C   0  0  0  0  0  0  0  0  0  0  0  0
   -4.5880    9.6820   -2.4580 C   0  0  0  0  0  0  0  0  0  0  0  0
   -6.0600   11.4290   -1.6600 C   0  0  0  0  0  0  0  0  0  0  0  0
   -5.7420   10.0800   -1.7810 C   0  0  0  0  0  0  0  0  0  0  0  0
  1  2  1  0
  2  3  2  0
  2  4  2  0
  2  5  1  0
  5  6  1  0
  6  7  2  0
  6  8  1  0
  7  9  1  0
  8 10  2  0
  9 11  2  0
 10 11  1  0
 11 12  1  0
 12 13  1  6
 12 14  1  0
 12 15  1  0
 14 16  2  0
 15 17  2  0
 15 18  1  0
 16 19  2  0
 16 20  1  1
 18 21  1  0
 17 22  1  0
 21 22  2  0
 20 23  2  0
 20 24  1  0
 23 25  1  0
 24 26  2  0
 25 27  2  0
 26 27  1  0
M  END
