mac-x0345-mac-x0455
     RDKit          3D

 23 24  0  0  0  0  0  0  0  0999 V2000
   -7.4020   14.5740    0.7900 C   0  0  0  0  0  0  0  0  0  0  0  0
   -6.2970   14.8840   -0.1880 C   0  0  0  0  0  0  0  0  0  0  0  0
   -6.5970   14.7100   -1.5020 N   0  0  0  0  0  0  0  0  0  0  0  0
   -5.0280   15.3230    0.1890 C   0  0  0  0  0  0  0  0  0  0  0  0
   -4.3880   15.6350    1.8950 Br  0  0  0  0  0  0  0  0  0  0  0  0
   -4.0870   15.5790   -0.7410 C   0  0  0  0  0  0  0  0  0  0  0  0
   -5.6250   14.9780   -2.4030 C   0  0  0  0  0  0  0  0  0  0  0  0
   -5.9010   14.7960   -3.7270 N   0  0  0  0  0  0  0  0  0  0  0  0
   -4.3830   15.4120   -2.0470 C   0  0  0  0  0  0  0  0  0  0  0  0
   -4.7210   14.5640   -4.5640 C   0  0  0  0  0  0  0  0  0  0  0  0
   -3.6250   13.7150   -3.8750 C   0  0  0  0  0  0  0  0  0  0  0  0
   -2.4670   14.4480   -3.1120 C   0  0  0  0  0  0  0  0  0  0  0  0
   -1.0300   14.2110   -3.6420 C   0  0  1  0  0  0  0  0  0  0  0  0
   -0.7380   15.3670   -4.4550 O   0  0  0  0  0  0  0  0  0  0  0  0
    0.0410   14.2360   -2.5090 C   0  0  0  0  0  0  0  0  0  0  0  0
   -0.9120   12.9450   -4.4780 C   0  0  0  0  0  0  0  0  0  0  0  0
    0.5480   15.2490   -2.0530 O   0  0  0  0  0  0  0  0  0  0  0  0
    0.4410   13.0440   -2.0250 O   0  0  0  0  0  0  0  0  0  0  0  0
   -1.8200   11.8830   -4.3120 C   0  0  0  0  0  0  0  0  0  0  0  0
    0.1010   12.7980   -5.4450 C   0  0  0  0  0  0  0  0  0  0  0  0
   -1.7260   10.7250   -5.0790 C   0  0  0  0  0  0  0  0  0  0  0  0
    0.1960   11.6370   -6.2120 C   0  0  0  0  0  0  0  0  0  0  0  0
   -0.7180   10.6020   -6.0300 C   0  0  0  0  0  0  0  0  0  0  0  0
  1  2  1  0
  2  3  2  0
  2  4  1  0
  4  5  1  0
  4  6  2  0
  3  7  1  0
  7  8  1  0
  6  9  1  0
  7  9  2  0
  8 10  1  0
 10 11  1  0
 11 12  1  0
 12 13  1  0
 13 14  1  6
 13 15  1  0
 13 16  1  0
 15 17  2  0
 15 18  1  0
 16 19  2  0
 16 20  1  0
 19 21  1  0
 20 22  2  0
 21 23  2  0
 22 23  1  0
M  END
