mac-x0212-mac-x0344
     RDKit          3D

 27 28  0  0  0  0  0  0  0  0999 V2000
   -6.5970   12.7090    1.2730 C   0  0  0  0  0  0  0  0  0  0  0  0
   -6.9950   14.4340    1.0590 S   0  0  0  0  0  0  0  0  0  0  0  0
   -7.8900   14.8490    2.1190 O   0  0  0  0  0  0  0  0  0  0  0  0
   -7.3590   14.6320   -0.3290 O   0  0  0  0  0  0  0  0  0  0  0  0
   -5.4700   15.1200    1.2710 N   0  0  0  0  0  0  0  0  0  0  0  0
   -4.5710   15.0410    0.1710 C   0  0  0  0  0  0  0  0  0  0  0  0
   -3.2570   14.6910    0.4520 C   0  0  0  0  0  0  0  0  0  0  0  0
   -4.9740   15.2930   -1.1490 C   0  0  0  0  0  0  0  0  0  0  0  0
   -2.3390   14.5800   -0.5830 C   0  0  0  0  0  0  0  0  0  0  0  0
   -4.0510   15.1800   -2.1950 C   0  0  0  0  0  0  0  0  0  0  0  0
   -2.7390   14.8180   -1.8960 C   0  0  0  0  0  0  0  0  0  0  0  0
   -1.7400   14.6670   -2.9530 C   0  0  0  0  0  0  0  0  0  0  0  0
   -0.5140   14.3210   -2.8740 N   0  0  0  0  0  0  0  0  0  0  0  0
   -2.2620   14.9340   -4.1590 O   0  0  0  0  0  0  0  0  0  0  0  0
    0.3030   14.2210   -4.1010 C   0  0  0  0  0  0  0  0  0  0  0  0
    1.2250   12.9990   -3.9290 C   0  0  0  0  0  0  0  0  0  0  0  0
    2.3430   13.1400   -4.7790 O   0  0  0  0  0  0  0  0  0  0  0  0
    1.7480   12.9730   -2.6040 O   0  0  0  0  0  0  0  0  0  0  0  0
    0.4240   11.6910   -4.2260 C   0  0  0  0  0  0  0  0  0  0  0  0
    0.2050   10.8500   -3.3560 O   0  0  0  0  0  0  0  0  0  0  0  0
    0.0330   11.6260   -5.5590 N   0  0  0  0  0  0  0  0  0  0  0  0
   -0.7900   10.6530   -6.1500 C   0  0  0  0  0  0  0  0  0  0  0  0
   -0.2960    9.9710   -7.2690 C   0  0  0  0  0  0  0  0  0  0  0  0
   -2.0610   10.3370   -5.6800 C   0  0  0  0  0  0  0  0  0  0  0  0
   -1.0750    8.9890   -7.8930 C   0  0  0  0  0  0  0  0  0  0  0  0
   -2.8360    9.3570   -6.2990 C   0  0  0  0  0  0  0  0  0  0  0  0
   -2.3420    8.6830   -7.4070 C   0  0  0  0  0  0  0  0  0  0  0  0
  1  2  1  0
  2  3  2  0
  2  4  2  0
  2  5  1  0
  5  6  1  0
  6  7  2  0
  6  8  1  0
  7  9  1  0
  8 10  2  0
  9 11  2  0
 10 11  1  0
 11 12  1  0
 12 13  2  3
 12 14  1  0
 13 15  1  0
 15 16  1  0
 16 17  1  0
 16 18  1  0
 16 19  1  0
 19 20  2  0
 19 21  1  0
 21 22  1  0
 22 23  2  0
 22 24  1  0
 23 25  1  0
 24 26  2  0
 25 27  2  0
 26 27  1  0
M  END
