mac-x0572-diamond-x0626_0_A
     RDKit          3D

 16 17  0  0  0  0  0  0  0  0999 V2000
   -8.0620   14.4930    3.1390 C   0  0  0  0  0  0  0  0  0  0  0  0
   -7.1210   14.6160    1.9220 C   0  0  2  0  0  0  0  0  0  0  0  0
   -7.8270   15.1910    0.7880 N   0  0  0  0  0  0  0  0  0  0  0  0
   -6.6900   13.3510    1.3940 C   0  0  0  0  0  0  0  0  0  0  0  0
   -5.4410   12.9520    0.9910 C   0  0  0  0  0  0  0  0  0  0  0  0
   -7.5760   12.2620    1.1770 C   0  0  0  0  0  0  0  0  0  0  0  0
   -7.2540   15.3190   -0.5020 C   0  0  0  0  0  0  0  0  0  0  0  0
   -5.5410   11.6800    0.5320 O   0  0  0  0  0  0  0  0  0  0  0  0
   -4.1640   13.4120    0.8950 N   0  0  0  0  0  0  0  0  0  0  0  0
   -6.0000   15.4180   -0.9830 C   0  0  0  0  0  0  0  0  0  0  0  0
   -6.8240   11.2710    0.6480 C   0  0  0  0  0  0  0  0  0  0  0  0
   -3.4890   14.4430    1.6960 C   0  0  0  0  0  0  0  0  0  0  0  0
   -4.8540   15.3970   -0.1690 C   0  0  0  0  0  0  0  0  0  0  0  0
   -2.6550   15.3270    0.7700 C   0  0  2  0  0  0  0  0  0  0  0  0
   -3.5490   15.4010   -0.4310 C   0  0  0  0  0  0  0  0  0  0  0  0
   -1.2160   14.7930    0.5680 C   0  0  0  0  0  0  0  0  0  0  0  0
  2  1  1  1
  2  3  1  0
  2  4  1  0
  4  5  2  0
  4  6  1  0
  3  7  1  0
  5  8  1  0
  5  9  1  0
  7 10  2  0
  6 11  2  0
  8 11  1  0
  9 12  1  0
 10 13  1  0
 12 14  1  0
 13 15  2  0
 14 15  1  0
 14 16  1  6
M  END
