mac-x0387-mac-x0213
     RDKit          3D

 24 27  0  0  0  0  0  0  0  0999 V2000
   -3.8050   15.4720    1.9820 N   0  0  0  0  0  0  0  0  0  0  0  0
   -2.7040   15.0550    1.2310 C   0  0  0  0  0  0  0  0  0  0  0  0
   -1.6140   14.7080    1.9340 N   0  0  0  0  0  0  0  0  0  0  0  0
   -2.7670   15.0180   -0.1630 C   0  0  0  0  0  0  0  0  0  0  0  0
   -1.6230   14.6030   -0.8610 C   0  0  0  0  0  0  0  0  0  0  0  0
   -0.5290   14.3150    1.2480 C   0  0  0  0  0  0  0  0  0  0  0  0
   -3.9220   15.3810   -0.8840 C   0  0  0  0  0  0  0  0  0  0  0  0
   -0.4780   14.2430   -0.1370 C   0  0  0  0  0  0  0  0  0  0  0  0
   -1.6860   14.5700   -2.2670 C   0  0  0  0  0  0  0  0  0  0  0  0
   -3.9550   15.3350   -2.2670 C   0  0  0  0  0  0  0  0  0  0  0  0
    0.7530   13.7840   -0.8390 C   0  0  0  0  0  0  0  0  0  0  0  0
   -2.8390   14.9300   -2.9620 C   0  0  0  0  0  0  0  0  0  0  0  0
    0.6470   14.0500   -2.2270 N   0  0  0  0  0  0  0  0  0  0  0  0
    0.3240   13.1250   -3.0310 C   0  0  0  0  0  0  0  0  0  0  0  0
    0.0690   11.8340   -2.7040 O   0  0  0  0  0  0  0  0  0  0  0  0
    0.2100   13.5330   -4.4520 C   0  0  0  0  0  0  0  0  0  0  0  0
   -1.2310   13.9280   -4.8390 C   0  0  0  0  0  0  0  0  0  0  0  0
    1.1100   14.7640   -4.6390 C   0  0  0  0  0  0  0  0  0  0  0  0
   -1.1530   15.4200   -5.0160 C   0  0  0  0  0  0  0  0  0  0  0  0
    0.1580   15.8830   -4.9030 C   0  0  0  0  0  0  0  0  0  0  0  0
   -2.1920   16.3130   -5.2750 C   0  0  0  0  0  0  0  0  0  0  0  0
    0.4630   17.2260   -5.0410 C   0  0  0  0  0  0  0  0  0  0  0  0
   -1.8820   17.6650   -5.4210 C   0  0  0  0  0  0  0  0  0  0  0  0
   -0.5690   18.1180   -5.3040 C   0  0  0  0  0  0  0  0  0  0  0  0
  1  2  1  0
  2  3  2  0
  2  4  1  0
  4  5  2  0
  3  6  1  0
  4  7  1  0
  5  8  1  0
  6  8  2  0
  5  9  1  0
  7 10  2  0
  8 11  1  0
  9 12  2  0
 10 12  1  0
 11 13  1  0
 13 14  2  3
 14 15  1  0
 14 16  1  0
 16 17  1  0
 16 18  1  0
 17 19  1  0
 18 20  1  0
 19 20  2  0
 19 21  1  0
 20 22  1  0
 21 23  2  0
 22 24  2  0
 23 24  1  0
M  END
