mac-x0124-diamond-x0438_0_A
     RDKit          3D

 24 27  0  0  0  0  0  0  0  0999 V2000
    0.9270   14.7300   -2.8390 C   0  0  0  0  0  0  0  0  0  0  0  0
   -0.3910   14.7520   -2.2640 N   0  0  0  0  0  0  0  0  0  0  0  0
   -1.5450   14.8260   -2.9930 C   0  0  0  0  0  0  0  0  0  0  0  0
   -0.6760   14.7060   -0.9090 C   0  0  0  0  0  0  0  0  0  0  0  0
   -2.5710   14.8330   -2.1010 C   0  0  0  0  0  0  0  0  0  0  0  0
   -2.0160   14.7630   -0.7850 C   0  0  0  0  0  0  0  0  0  0  0  0
    0.1640   14.6250    0.1190 N   0  0  0  0  0  0  0  0  0  0  0  0
   -2.5910   14.7510    0.4630 C   0  0  0  0  0  0  0  0  0  0  0  0
   -0.4840   14.6040    1.3220 C   0  0  0  0  0  0  0  0  0  0  0  0
   -1.8280   14.6650    1.5970 N   0  0  0  0  0  0  0  0  0  0  0  0
   -3.9660   14.8610    0.1020 C   0  0  0  0  0  0  0  0  0  0  0  0
   -5.3000   14.6530    0.5540 C   0  0  0  0  0  0  0  0  0  0  0  0
   -3.8200   15.3390   -1.1870 C   0  0  0  0  0  0  0  0  0  0  0  0
   -5.9120   14.2090    1.7040 N   0  0  0  0  0  0  0  0  0  0  0  0
   -6.3080   14.9600   -0.3880 C   0  0  0  0  0  0  0  0  0  0  0  0
   -4.8180   15.6150   -2.0450 C   0  0  0  0  0  0  0  0  0  0  0  0
   -7.4830   14.6930    0.2150 N   0  0  0  0  0  0  0  0  0  0  0  0
   -7.2200   14.2440    1.4670 C   0  0  0  0  0  0  0  0  0  0  0  0
   -6.1070   15.4340   -1.6690 C   0  0  0  0  0  0  0  0  0  0  0  0
   -8.3090   13.8590    2.3840 C   0  0  0  0  0  0  0  0  0  0  0  0
   -9.2930   15.2840    2.8240 S   0  0  0  0  0  0  0  0  0  0  0  0
   -8.4090   15.9690    4.2100 C   0  0  0  0  0  0  0  0  0  0  0  0
  -10.5840   14.8000    3.2870 O   0  0  0  0  0  0  0  0  0  0  0  0
   -9.2610   16.2440    1.7370 O   0  0  0  0  0  0  0  0  0  0  0  0
  1  2  1  0
  2  3  1  0
  2  4  1  0
  3  5  2  0
  4  6  2  0
  5  6  1  0
  4  7  1  0
  6  8  1  0
  7  9  2  0
  8 10  2  0
  9 10  1  0
  8 11  1  0
 11 12  1  0
 11 13  2  0
 12 14  1  0
 12 15  2  0
 13 16  1  0
 15 17  1  0
 14 18  2  0
 17 18  1  0
 15 19  1  0
 16 19  2  0
 18 20  1  0
 21 20  1  0
 21 22  1  0
 21 23  2  0
 21 24  2  0
M  END
