mac-x0527-diamond-x0905_0_A
     RDKit          3D

 17 18  0  0  0  0  0  0  0  0999 V2000
   -3.7360   15.0110   -3.7910 O   0  0  0  0  0  0  0  0  0  0  0  0
   -3.1060   14.9650   -2.7350 C   0  0  0  0  0  0  0  0  0  0  0  0
   -1.7800   14.6010   -2.6720 N   0  0  0  0  0  0  0  0  0  0  0  0
   -3.7630   15.3360   -1.3970 C   0  0  1  0  0  0  0  0  0  0  0  0
   -0.9440   14.6770   -3.8450 C   0  0  0  0  0  0  0  0  0  0  0  0
   -5.2530   14.9470   -1.4650 C   0  0  0  0  0  0  0  0  0  0  0  0
   -3.0950   14.7580   -0.2020 N   0  0  0  0  0  0  0  0  0  0  0  0
   -0.8910   13.3350   -4.5470 C   0  0  0  0  0  0  0  0  0  0  0  0
   -5.8820   15.0420   -0.1320 N   0  0  0  0  0  0  0  0  0  0  0  0
   -3.7820   14.7520    0.9880 C   0  0  0  0  0  0  0  0  0  0  0  0
   -7.2200   14.6710   -0.1400 O   0  0  0  0  0  0  0  0  0  0  0  0
   -1.8260   12.3300   -4.2440 C   0  0  0  0  0  0  0  0  0  0  0  0
    0.0940   13.0720   -5.5110 C   0  0  0  0  0  0  0  0  0  0  0  0
   -5.1200   14.8880    1.0240 C   0  0  0  0  0  0  0  0  0  0  0  0
   -1.7760   11.0920   -4.8890 C   0  0  0  0  0  0  0  0  0  0  0  0
    0.1440   11.8350   -6.1560 C   0  0  0  0  0  0  0  0  0  0  0  0
   -0.7920   10.8460   -5.8450 C   0  0  0  0  0  0  0  0  0  0  0  0
  1  2  2  0
  2  3  1  0
  4  2  1  6
  3  5  1  0
  4  6  1  0
  4  7  1  0
  5  8  1  0
  6  9  1  0
  7 10  1  0
  9 11  1  0
  8 12  2  0
  8 13  1  0
  9 14  1  0
 10 14  2  0
 12 15  1  0
 13 16  2  0
 15 17  2  0
 16 17  1  0
M  END
