mac-x0358-mac-x0555
     RDKit          3D

 23 25  0  0  0  0  0  0  0  0999 V2000
    1.8810   12.7770   -2.5110 O   0  0  0  0  0  0  0  0  0  0  0  0
    1.1560   12.0860   -3.4200 C   0  0  0  0  0  0  0  0  0  0  0  0
    0.5880   11.0450   -3.1140 O   0  0  0  0  0  0  0  0  0  0  0  0
    1.0640   12.7080   -4.8030 C   0  0  0  0  0  0  0  0  0  0  0  0
   -0.2660   13.3560   -4.7870 C   0  0  0  0  0  0  0  0  0  0  0  0
   -1.4120   12.5680   -4.8470 C   0  0  0  0  0  0  0  0  0  0  0  0
   -0.3630   14.7380   -4.6770 C   0  0  0  0  0  0  0  0  0  0  0  0
   -1.2760   11.2090   -4.9730 O   0  0  0  0  0  0  0  0  0  0  0  0
   -2.6630   13.1400   -4.7600 C   0  0  0  0  0  0  0  0  0  0  0  0
   -1.6100   15.3190   -4.5880 C   0  0  0  0  0  0  0  0  0  0  0  0
   -2.7430   14.5210   -4.6100 C   0  0  0  0  0  0  0  0  0  0  0  0
   -4.0370   15.1910   -4.4320 C   0  0  0  0  0  0  0  0  0  0  0  0
   -4.3960   15.1260   -2.9340 C   0  0  0  0  0  0  0  0  0  0  0  0
   -5.7200   14.9260   -2.5210 C   0  0  0  0  0  0  0  0  0  0  0  0
   -3.4130   15.2490   -1.9280 C   0  0  0  0  0  0  0  0  0  0  0  0
   -6.0870   14.8320   -1.1810 C   0  0  0  0  0  0  0  0  0  0  0  0
   -3.7580   15.1640   -0.5730 C   0  0  0  0  0  0  0  0  0  0  0  0
   -5.0890   14.9490   -0.1930 C   0  0  0  0  0  0  0  0  0  0  0  0
   -7.3780   14.6270   -0.8760 N   0  0  0  0  0  0  0  0  0  0  0  0
   -5.4830   14.8380    1.1500 C   0  0  0  0  0  0  0  0  0  0  0  0
   -7.7150   14.5220    0.4290 C   0  0  0  0  0  0  0  0  0  0  0  0
   -6.8200   14.6160    1.4860 C   0  0  0  0  0  0  0  0  0  0  0  0
   -7.2030   14.5010    2.8220 N   0  0  0  0  0  0  0  0  0  0  0  0
  1  2  1  0
  2  3  2  0
  2  4  1  0
  4  5  1  0
  5  6  2  0
  5  7  1  0
  6  8  1  0
  6  9  1  0
  7 10  2  0
  9 11  2  0
 10 11  1  0
 11 12  1  0
 12 13  1  0
 13 14  2  0
 13 15  1  0
 14 16  1  0
 15 17  2  0
 16 18  2  0
 17 18  1  0
 16 19  1  0
 18 20  1  0
 19 21  2  0
 20 22  2  0
 21 22  1  0
 22 23  1  0
M  END
