mac-x0412-mac-x0341
     RDKit          3D

 12 13  0  0  0  0  0  0  0  0999 V2000
   -7.4930   14.4160   -1.3970 O   0  0  0  0  0  0  0  0  0  0  0  0
   -6.7640   14.8500   -0.5110 C   0  0  0  0  0  0  0  0  0  0  0  0
   -7.1830   14.8100    0.9340 C   0  0  0  0  0  0  0  0  0  0  0  0
   -5.4070   15.4850   -0.8040 C   0  0  1  0  0  0  0  0  0  0  0  0
   -8.4140   14.8630    1.0400 O   0  0  0  0  0  0  0  0  0  0  0  0
   -4.3790   15.0270    0.2070 C   0  0  0  0  0  0  0  0  0  0  0  0
   -6.1590   14.7410    1.8200 C   0  0  0  0  0  0  0  0  0  0  0  0
   -5.0010   15.2320   -2.2300 C   0  0  0  0  0  0  0  0  0  0  0  0
   -4.7590   14.6890    1.4480 C   0  0  0  0  0  0  0  0  0  0  0  0
   -3.0030   14.9610   -0.2340 C   0  0  0  0  0  0  0  0  0  0  0  0
   -3.7380   14.9730   -2.5650 C   0  0  0  0  0  0  0  0  0  0  0  0
   -2.7130   14.9310   -1.5500 C   0  0  0  0  0  0  0  0  0  0  0  0
  1  2  2  0
  2  3  1  0
  2  4  1  0
  3  5  1  0
  4  6  1  0
  3  7  2  0
  4  8  1  6
  6  9  2  0
  7  9  1  0
  6 10  1  0
  8 11  2  0
 10 12  2  0
 11 12  1  0
M  CHG  1   5  -1
M  END
