mac-x0301-diamond-x0574_0_A
     RDKit          3D

 20 22  0  0  0  0  0  0  0  0999 V2000
    0.8400   14.6750   -3.0430 O   0  0  0  0  0  0  0  0  0  0  0  0
   -0.3940   14.6480   -3.5740 C   0  0  0  0  0  0  0  0  0  0  0  0
   -0.6040   14.4060   -4.7500 O   0  0  0  0  0  0  0  0  0  0  0  0
   -1.4960   14.9030   -2.6370 C   0  0  0  0  0  0  0  0  0  0  0  0
   -1.4430   14.7220   -1.2710 C   0  0  0  0  0  0  0  0  0  0  0  0
   -2.7120   15.3620   -3.1750 C   0  0  0  0  0  0  0  0  0  0  0  0
   -2.5760   14.9740   -0.5310 C   0  0  0  0  0  0  0  0  0  0  0  0
   -3.8210   15.6300   -2.3700 C   0  0  0  0  0  0  0  0  0  0  0  0
   -0.3720   14.2980   -0.4770 O   0  0  0  0  0  0  0  0  0  0  0  0
   -3.7500   15.4350   -1.0270 C   0  0  0  0  0  0  0  0  0  0  0  0
   -2.3110   14.6100    0.7890 C   0  0  1  0  0  0  0  0  0  0  0  0
   -0.7510   14.8560    0.8320 C   0  0  1  0  0  0  0  0  0  0  0  0
    0.0020   14.1590    1.8670 N   0  0  0  0  0  0  0  0  0  0  0  0
   -3.4430   15.1880    1.7070 C   0  0  0  0  0  0  0  0  0  0  0  0
   -2.6190   13.3440    0.1520 C   0  0  0  0  0  0  0  0  0  0  0  0
   -4.8170   14.4660    1.5250 C   0  0  1  0  0  0  0  0  0  0  0  0
   -3.8520   13.0020   -0.1850 C   0  0  0  0  0  0  0  0  0  0  0  0
   -5.9820   15.2360    1.7540 O   0  0  0  0  0  0  0  0  0  0  0  0
   -4.9920   13.8900    0.1210 C   0  0  0  0  0  0  0  0  0  0  0  0
   -6.8680   14.6670    2.7030 C   0  0  0  0  0  0  0  0  0  0  0  0
  1  2  1  0
  2  3  2  0
  2  4  1  0
  4  5  2  0
  4  6  1  0
  5  7  1  0
  6  8  2  0
  5  9  1  0
  7 10  2  0
  8 10  1  0
  7 11  1  0
  9 12  1  0
 11 12  1  0
 12 13  1  1
 11 14  1  1
 11 15  1  0
 14 16  1  0
 15 17  2  0
 16 18  1  6
 16 19  1  0
 17 19  1  0
 18 20  1  0
M  END
