mac-x0190-mac-x0361
     RDKit          3D

 16 18  0  0  0  0  0  0  0  0999 V2000
   -9.7160   14.7770    0.1420 O   0  0  0  0  0  0  0  0  0  0  0  0
   -8.4460   14.3630   -0.1640 C   0  0  0  0  0  0  0  0  0  0  0  0
   -7.4940   15.3010   -0.6210 C   0  0  0  0  0  0  0  0  0  0  0  0
   -8.1380   13.0370   -0.0140 C   0  0  0  0  0  0  0  0  0  0  0  0
   -7.9570   16.5950   -0.7860 N   0  0  0  0  0  0  0  0  0  0  0  0
   -6.8480   12.6390   -0.3130 C   0  0  0  0  0  0  0  0  0  0  0  0
   -6.1660   14.9160   -0.8830 C   0  0  0  0  0  0  0  0  0  0  0  0
   -5.8800   13.6020   -0.7340 C   0  0  0  0  0  0  0  0  0  0  0  0
   -4.9680   15.7720   -1.2890 C   0  0  2  0  0  0  0  0  0  0  0  0
   -6.4570   11.2120   -0.1930 C   0  0  0  0  0  0  0  0  0  0  0  0
   -4.3930   15.4900   -2.5920 O   0  0  0  0  0  0  0  0  0  0  0  0
   -4.4550   13.2410   -1.0450 C   0  0  1  0  0  0  0  0  0  0  0  0
   -5.4510   10.9280   -1.2030 N   0  0  0  0  0  0  0  0  0  0  0  0
   -3.8680   15.4280   -0.3340 C   0  0  0  0  0  0  0  0  0  0  0  0
   -3.5940   14.1440   -0.2020 C   0  0  0  0  0  0  0  0  0  0  0  0
   -4.2820   11.7560   -0.8940 C   0  0  0  0  0  0  0  0  0  0  0  0
  1  2  1  0
  2  3  2  0
  2  4  1  0
  3  5  1  0
  4  6  2  0
  3  7  1  0
  6  8  1  0
  7  8  2  0
  7  9  1  0
  6 10  1  0
  9 11  1  6
  8 12  1  0
 10 13  1  0
  9 14  1  0
 12 15  1  1
 14 15  2  0
 12 16  1  0
 13 16  1  0
M  END
