mac-x0567-mac-x0305
     RDKit          3D

 13 15  0  0  0  0  0  0  0  0999 V2000
    0.2720   13.9970   -0.4490 N   0  0  0  0  0  0  0  0  0  0  0  0
   -0.3400   14.2600   -1.7220 C   0  0  0  0  0  0  0  0  0  0  0  0
    0.1780   14.1920   -2.8170 O   0  0  0  0  0  0  0  0  0  0  0  0
   -0.7160   14.2040    0.4390 C   0  0  0  0  0  0  0  0  0  0  0  0
   -0.9890   14.1750    1.7440 N   0  0  0  0  0  0  0  0  0  0  0  0
   -1.8660   14.5730   -0.1120 C   0  0  0  0  0  0  0  0  0  0  0  0
   -1.7710   14.6480   -1.4450 C   0  0  0  0  0  0  0  0  0  0  0  0
   -2.3030   14.5290    1.9960 N   0  0  0  0  0  0  0  0  0  0  0  0
   -2.8310   14.7790    0.8110 C   0  0  0  0  0  0  0  0  0  0  0  0
   -3.0210   15.0490   -1.9660 C   0  0  0  0  0  0  0  0  0  0  0  0
   -4.0510   15.1720    0.3660 C   0  0  0  0  0  0  0  0  0  0  0  0
   -4.1550   15.3130   -1.0630 C   0  0  0  0  0  0  0  0  0  0  0  0
   -5.0070   15.3850    1.2680 O   0  0  0  0  0  0  0  0  0  0  0  0
  1  2  1  0
  2  3  2  0
  1  4  1  0
  4  5  1  0
  4  6  2  0
  2  7  1  0
  6  7  1  0
  5  8  1  0
  6  9  1  0
  8  9  2  0
  7 10  2  0
  9 11  1  0
 10 12  1  0
 11 12  2  0
 11 13  1  0
M  END
