mac-x0228-diamond-x1015_0_A
     RDKit          3D

 25 29  0  0  0  0  0  0  0  0999 V2000
   -1.1890   13.9970   -1.5850 N   0  0  0  0  0  0  0  0  0  0  0  0
   -2.1440   14.3140   -2.5340 C   0  0  0  0  0  0  0  0  0  0  0  0
   -1.8170   14.2140   -3.8030 N   0  0  0  0  0  0  0  0  0  0  0  0
   -0.2480   13.5920   -2.3330 C   0  0  0  0  0  0  0  0  0  0  0  0
   -3.5020   14.6270   -2.0370 C   0  0  0  0  0  0  0  0  0  0  0  0
   -0.4320   13.7100   -3.7870 C   0  0  1  0  0  0  0  0  0  0  0  0
    0.8920   13.0230   -2.0610 N   0  0  0  0  0  0  0  0  0  0  0  0
   -3.7670   14.4400   -0.6730 C   0  0  0  0  0  0  0  0  0  0  0  0
   -4.5230   15.0680   -2.9010 C   0  0  0  0  0  0  0  0  0  0  0  0
   -0.0520   12.3160   -3.9500 N   0  0  0  0  0  0  0  0  0  0  0  0
    0.4990   11.8690   -2.7010 C   0  0  0  0  0  0  0  0  0  0  0  0
    0.5960   10.7280   -2.2280 O   0  0  0  0  0  0  0  0  0  0  0  0
   -5.0420   14.6840   -0.2110 C   0  0  0  0  0  0  0  0  0  0  0  0
   -5.8130   15.3110   -2.4020 C   0  0  0  0  0  0  0  0  0  0  0  0
   -0.4660   11.4970   -5.0310 C   0  0  0  0  0  0  0  0  0  0  0  0
   -6.0410   15.1090   -1.0640 C   0  0  0  0  0  0  0  0  0  0  0  0
   -5.5920   14.5490    1.1490 C   0  0  0  0  0  0  0  0  0  0  0  0
    0.0920   11.6700   -6.3100 C   0  0  0  0  0  0  0  0  0  0  0  0
   -1.4330   10.4910   -4.8720 C   0  0  0  0  0  0  0  0  0  0  0  0
   -7.2450   15.2880   -0.4320 O   0  0  0  0  0  0  0  0  0  0  0  0
   -7.0760   14.5260    0.7850 C   0  0  0  0  0  0  0  0  0  0  0  0
   -0.3030   10.8710   -7.3880 C   0  0  0  0  0  0  0  0  0  0  0  0
   -1.8310    9.6880   -5.9480 C   0  0  0  0  0  0  0  0  0  0  0  0
   -1.2650    9.8820   -7.2030 C   0  0  0  0  0  0  0  0  0  0  0  0
   -1.7560    8.8970   -8.5240 Cl  0  0  0  0  0  0  0  0  0  0  0  0
  1  2  1  0
  2  3  2  0
  1  4  2  0
  2  5  1  0
  6  3  1  1
  4  6  1  0
  4  7  1  0
  5  8  2  0
  5  9  1  0
  6 10  1  0
  7 11  1  0
 10 11  1  0
 11 12  2  0
  8 13  1  0
  9 14  2  0
 10 15  1  0
 13 16  2  0
 14 16  1  0
 13 17  1  0
 15 18  2  0
 15 19  1  0
 16 20  1  0
 17 21  1  0
 20 21  1  0
 18 22  1  0
 19 23  2  0
 22 24  2  0
 23 24  1  0
 24 25  1  0
M  END
