mac-x0142-mac-x0584
     RDKit          3D

 17 20  0  0  0  0  0  0  0  0999 V2000
    2.3060   13.2670   -4.3370 C   0  0  0  0  0  0  0  0  0  0  0  0
    1.4730   12.4920   -3.3630 C   0  0  0  0  0  0  0  0  0  0  0  0
    0.8590   13.6510   -4.1190 C   0  0  0  0  0  0  0  0  0  0  0  0
   -0.1350   13.3240   -5.2090 C   0  0  0  0  0  0  0  0  0  0  0  0
    0.4990   14.8730   -3.3050 C   0  0  0  0  0  0  0  0  0  0  0  0
   -1.5550   13.2040   -4.6580 C   0  0  0  0  0  0  0  0  0  0  0  0
   -0.8510   14.6660   -2.7570 N   0  0  0  0  0  0  0  0  0  0  0  0
   -1.9130   14.3770   -3.7440 C   0  0  0  0  0  0  0  0  0  0  0  0
   -1.1250   14.7080   -1.3770 C   0  0  0  0  0  0  0  0  0  0  0  0
   -0.1250   14.5370   -0.4330 N   0  0  0  0  0  0  0  0  0  0  0  0
   -2.3470   14.9360   -0.8580 C   0  0  0  0  0  0  0  0  0  0  0  0
   -0.3910   14.5350    0.9200 C   0  0  0  0  0  0  0  0  0  0  0  0
   -2.5410   14.9750    0.6180 C   0  0  0  0  0  0  0  0  0  0  0  0
   -3.6620   15.2020   -1.3560 C   0  0  0  0  0  0  0  0  0  0  0  0
   -1.5290   14.7250    1.4920 N   0  0  0  0  0  0  0  0  0  0  0  0
   -3.7640   15.2790    0.9460 N   0  0  0  0  0  0  0  0  0  0  0  0
   -4.4200   15.4050   -0.2690 C   0  0  0  0  0  0  0  0  0  0  0  0
  1  2  1  0
  3  1  1  0
  2  3  1  0
  3  4  1  0
  3  5  1  0
  4  6  1  0
  5  7  1  0
  6  8  1  0
  7  8  1  0
  7  9  1  0
  9 10  1  0
  9 11  2  0
 10 12  1  0
 11 13  1  0
 11 14  1  0
 12 15  2  0
 13 15  1  0
 13 16  2  0
 14 17  2  0
 16 17  1  0
M  END
