mac-x0301-diamond-x0465_0_A
     RDKit          3D

 26 28  0  0  0  0  0  0  0  0999 V2000
    0.4290   14.8050   -2.9490 O   0  0  0  0  0  0  0  0  0  0  0  0
   -0.8580   14.4290   -3.0600 C   0  0  0  0  0  0  0  0  0  0  0  0
   -1.2770   13.8480   -4.1190 N   0  0  0  0  0  0  0  0  0  0  0  0
   -1.7200   14.7230   -1.8850 C   0  0  0  0  0  0  0  0  0  0  0  0
   -0.2470   13.6290   -5.1520 C   0  0  0  0  0  0  0  0  0  0  0  0
   -1.2620   14.5920   -0.5840 C   0  0  0  0  0  0  0  0  0  0  0  0
   -3.0530   15.1570   -2.0550 C   0  0  0  0  0  0  0  0  0  0  0  0
    0.7700   12.5080   -4.7660 C   0  0  2  0  0  0  0  0  0  0  0  0
   -2.0540   14.8770    0.5120 C   0  0  0  0  0  0  0  0  0  0  0  0
   -3.8640   15.4440   -0.9340 C   0  0  0  0  0  0  0  0  0  0  0  0
   -0.0180   14.1830   -0.2150 O   0  0  0  0  0  0  0  0  0  0  0  0
    2.1810   13.0580   -5.0240 C   0  0  0  0  0  0  0  0  0  0  0  0
    0.6590   11.4400   -5.7320 O   0  0  0  0  0  0  0  0  0  0  0  0
    0.7330   12.1140   -3.2630 C   0  0  0  0  0  0  0  0  0  0  0  0
   -3.3630   15.3060    0.3690 C   0  0  0  0  0  0  0  0  0  0  0  0
   -1.3940   14.6900    1.6950 O   0  0  0  0  0  0  0  0  0  0  0  0
   -0.0730   14.4090    1.2070 C   0  0  0  0  0  0  0  0  0  0  0  0
    1.0710   12.7990   -2.3100 O   0  0  0  0  0  0  0  0  0  0  0  0
    0.2980   10.8510   -3.0200 O   0  0  0  0  0  0  0  0  0  0  0  0
   -0.5210   10.7470   -5.8080 C   0  0  0  0  0  0  0  0  0  0  0  0
   -0.6480    9.6670   -6.6810 C   0  0  0  0  0  0  0  0  0  0  0  0
   -1.6070   11.1190   -5.0080 C   0  0  0  0  0  0  0  0  0  0  0  0
    0.3790    9.2930   -7.4570 F   0  0  0  0  0  0  0  0  0  0  0  0
   -1.8400    8.9570   -6.7680 C   0  0  0  0  0  0  0  0  0  0  0  0
   -2.8080   10.4080   -5.0930 C   0  0  0  0  0  0  0  0  0  0  0  0
   -2.9250    9.3280   -5.9710 C   0  0  0  0  0  0  0  0  0  0  0  0
  1  2  1  0
  2  3  2  3
  2  4  1  0
  3  5  1  0
  4  6  1  0
  4  7  2  0
  5  8  1  0
  6  9  2  0
  7 10  1  0
  6 11  1  0
  8 12  1  6
  8 13  1  0
  8 14  1  0
  9 15  1  0
 10 15  2  0
  9 16  1  0
 11 17  1  0
 16 17  1  0
 14 18  2  0
 14 19  1  0
 13 20  1  0
 20 21  2  0
 20 22  1  0
 21 23  1  0
 21 24  1  0
 22 25  2  0
 24 26  2  0
 25 26  1  0
M  END
