mac-x0116-diamond-x0471_0_A
     RDKit          3D

 27 30  0  0  0  0  0  0  0  0999 V2000
   -6.0010   14.3000    2.2080 C   0  0  0  0  0  0  0  0  0  0  0  0
   -4.5700   14.3310    1.9720 N   0  0  0  0  0  0  0  0  0  0  0  0
   -3.9200   14.5130    0.7690 C   0  0  0  0  0  0  0  0  0  0  0  0
   -6.5500   12.9100    2.2070 C   0  0  0  0  0  0  0  0  0  0  0  0
   -6.5060   12.2220    1.0270 O   0  0  0  0  0  0  0  0  0  0  0  0
   -7.1220   12.1240    3.1730 C   0  0  0  0  0  0  0  0  0  0  0  0
   -7.4520   10.9000    2.5540 C   0  0  0  0  0  0  0  0  0  0  0  0
   -7.0560   11.0140    1.2460 C   0  0  0  0  0  0  0  0  0  0  0  0
   -4.8180   14.5670   -0.4490 C   0  0  2  0  0  0  0  0  0  0  0  0
   -2.6050   14.6160    0.6050 C   0  0  0  0  0  0  0  0  0  0  0  0
   -4.0630   14.8790   -1.7380 C   0  0  0  0  0  0  0  0  0  0  0  0
   -2.0120   14.7930   -0.7110 C   0  0  0  0  0  0  0  0  0  0  0  0
   -1.5820   14.5730    1.5190 N   0  0  0  0  0  0  0  0  0  0  0  0
   -6.0140   15.4200   -0.1480 N   0  0  0  0  0  0  0  0  0  0  0  0
   -5.4810   13.2390   -0.5120 C   0  0  0  0  0  0  0  0  0  0  0  0
   -2.7560   14.9610   -1.8480 N   0  0  0  0  0  0  0  0  0  0  0  0
   -0.7160   14.7890   -0.6080 N   0  0  0  0  0  0  0  0  0  0  0  0
   -0.5260   14.6620    0.7640 C   0  0  0  0  0  0  0  0  0  0  0  0
   -7.0210   14.5780    0.0320 C   0  0  0  0  0  0  0  0  0  0  0  0
   -6.7350   13.2730   -0.2150 N   0  0  0  0  0  0  0  0  0  0  0  0
   -8.4600   14.9250    0.4860 C   0  0  0  0  0  0  0  0  0  0  0  0
   -8.7130   14.4370    1.8620 N   0  0  0  0  0  0  0  0  0  0  0  0
   -8.9680   15.2640    2.9550 C   0  0  0  0  0  0  0  0  0  0  0  0
   -9.4440   16.3900    2.8400 O   0  0  0  0  0  0  0  0  0  0  0  0
   -8.6330   14.6860    4.3400 C   0  0  0  0  0  0  0  0  0  0  0  0
   -9.7500   13.7930    4.8830 C   0  0  0  0  0  0  0  0  0  0  0  0
   -8.2790   15.7860    5.3410 C   0  0  0  0  0  0  0  0  0  0  0  0
  1  2  1  0
  2  3  1  0
  1  4  1  0
  4  5  1  0
  4  6  2  0
  6  7  1  0
  5  8  1  0
  7  8  2  0
  3  9  1  0
  3 10  2  0
  9 11  1  6
 10 12  1  0
 10 13  1  0
  9 14  1  0
  9 15  1  0
 11 16  2  0
 12 16  1  0
 12 17  2  0
 13 18  2  0
 17 18  1  0
 14 19  2  0
 15 20  2  0
 19 20  1  0
 19 21  1  0
 21 22  1  0
 22 23  1  0
 23 24  2  0
 23 25  1  0
 25 26  1  0
 25 27  1  0
M  END
