mac-x0567-mac-x0338
     RDKit          3D

 13 14  0  0  0  0  0  0  0  0999 V2000
    0.4720   14.1570   -0.2300 N   0  0  0  0  0  0  0  0  0  0  0  0
   -0.7840   14.3820    0.2000 C   0  0  0  0  0  0  0  0  0  0  0  0
   -1.1230   14.3780    1.5220 N   0  0  0  0  0  0  0  0  0  0  0  0
   -1.9590   14.6440   -0.4560 C   0  0  0  0  0  0  0  0  0  0  0  0
   -2.4240   14.6110    1.7630 N   0  0  0  0  0  0  0  0  0  0  0  0
   -2.9710   14.7790    0.5450 C   0  0  0  0  0  0  0  0  0  0  0  0
   -2.1330   14.7540   -1.8360 C   0  0  0  0  0  0  0  0  0  0  0  0
   -4.2870   15.0410    0.1720 C   0  0  0  0  0  0  0  0  0  0  0  0
   -3.4770   15.0300   -2.1820 C   0  0  0  0  0  0  0  0  0  0  0  0
   -5.3110   15.1560    1.1830 C   0  0  0  0  0  0  0  0  0  0  0  0
   -4.5180   15.1690   -1.2200 C   0  0  0  0  0  0  0  0  0  0  0  0
   -4.8890   15.6070    2.3790 N   0  0  0  0  0  0  0  0  0  0  0  0
   -6.4790   14.8550    0.9800 O   0  0  0  0  0  0  0  0  0  0  0  0
  1  2  1  0
  2  3  1  0
  2  4  2  0
  3  5  1  0
  4  6  1  0
  5  6  2  0
  4  7  1  0
  6  8  1  0
  7  9  2  0
  8 10  1  0
  8 11  2  0
  9 11  1  0
 10 12  1  0
 10 13  2  0
M  END
