mac-x0360-mac-x0159
     RDKit          3D

 27 30  0  0  0  0  0  0  0  0999 V2000
   -8.0130   11.2220    1.6770 Cl  0  0  0  0  0  0  0  0  0  0  0  0
   -6.8110   11.4390    0.4690 C   0  0  0  0  0  0  0  0  0  0  0  0
   -6.6330   10.4900   -0.5360 C   0  0  0  0  0  0  0  0  0  0  0  0
   -6.0250   12.5670    0.5080 C   0  0  0  0  0  0  0  0  0  0  0  0
   -5.0590   12.7390   -0.4660 C   0  0  0  0  0  0  0  0  0  0  0  0
   -5.6440   10.6850   -1.5020 C   0  0  0  0  0  0  0  0  0  0  0  0
   -5.4020    9.5190   -2.7400 Cl  0  0  0  0  0  0  0  0  0  0  0  0
   -4.0900   14.2060   -0.3780 S   0  0  0  0  0  0  0  0  0  0  0  0
   -4.8520   11.8130   -1.4720 C   0  0  0  0  0  0  0  0  0  0  0  0
   -3.3180   13.9930   -1.8210 N   0  0  0  0  0  0  0  0  0  0  0  0
   -5.1250   15.2970   -0.5390 O   0  0  0  0  0  0  0  0  0  0  0  0
   -2.8380   15.2010   -2.3260 C   0  0  1  0  0  0  0  0  0  0  0  0
   -3.4680   16.0830   -1.3950 N   0  0  0  0  0  0  0  0  0  0  0  0
   -1.4020   15.2070   -2.1980 N   0  0  0  0  0  0  0  0  0  0  0  0
   -0.6380   14.7550   -3.3600 C   0  0  0  0  0  0  0  0  0  0  0  0
   -3.1260   15.8690    0.0290 C   0  0  0  0  0  0  0  0  0  0  0  0
   -1.1350   14.6990   -0.8700 C   0  0  2  0  0  0  0  0  0  0  0  0
   -1.6610   15.5780    0.2310 C   0  0  2  0  0  0  0  0  0  0  0  0
    0.2220   14.5430   -0.4110 N   0  0  0  0  0  0  0  0  0  0  0  0
   -0.2700   15.9670   -4.1740 C   0  0  0  0  0  0  0  0  0  0  0  0
   -1.3250   14.7740    1.3830 N   0  0  0  0  0  0  0  0  0  0  0  0
    0.0470   14.4650    1.0520 C   0  0  0  0  0  0  0  0  0  0  0  0
    0.9940   16.4910   -4.3280 C   0  0  0  0  0  0  0  0  0  0  0  0
   -1.2720   16.6630   -4.8540 N   0  0  0  0  0  0  0  0  0  0  0  0
   -0.7500   17.6870   -5.4960 C   0  0  0  0  0  0  0  0  0  0  0  0
    0.9370   17.8800   -5.3350 S   0  0  0  0  0  0  0  0  0  0  0  0
   -1.5200   18.6520   -6.3280 C   0  0  0  0  0  0  0  0  0  0  0  0
  1  2  1  0
  2  3  2  0
  2  4  1  0
  4  5  2  0
  3  6  1  0
  6  7  1  0
  5  8  1  0
  5  9  1  0
  6  9  2  0
  8 10  1  6
  8 11  2  0
 12 10  1  1
 12 13  1  0
 12 14  1  0
 14 15  1  0
 13 16  1  0
 14 17  1  0
 18 16  1  6
 17 18  1  0
 17 19  1  1
 15 20  1  0
 18 21  1  0
 19 22  1  0
 21 22  1  0
 20 23  2  0
 20 24  1  0
 24 25  2  0
 23 26  1  0
 25 26  1  0
 25 27  1  0
M  END
