mac-x0348-mac-x0568
     RDKit          3D

 27 29  0  0  0  0  0  0  0  0999 V2000
    0.7540   18.5990   -5.9470 C   0  0  0  0  0  0  0  0  0  0  0  0
    0.0950   17.4690   -5.3430 N   0  0  0  0  0  0  0  0  0  0  0  0
    0.6690   16.6430   -4.4140 C   0  0  0  0  0  0  0  0  0  0  0  0
   -1.1920   17.0630   -5.6110 C   0  0  0  0  0  0  0  0  0  0  0  0
   -0.2550   15.6670   -4.0660 C   0  0  0  0  0  0  0  0  0  0  0  0
   -1.4280   15.9310   -4.8310 C   0  0  0  0  0  0  0  0  0  0  0  0
   -2.1680   17.5790   -6.4750 C   0  0  0  0  0  0  0  0  0  0  0  0
   -0.0800   14.5370   -3.0700 C   0  0  1  0  0  0  0  0  0  0  0  0
   -2.6820   15.2950   -4.9230 C   0  0  0  0  0  0  0  0  0  0  0  0
   -3.4000   16.9180   -6.5430 C   0  0  0  0  0  0  0  0  0  0  0  0
    0.7740   13.3470   -3.5120 C   0  0  0  0  0  0  0  0  0  0  0  0
    0.0660   14.9710   -1.5900 C   0  0  0  0  0  0  0  0  0  0  0  0
   -3.6550   15.7920   -5.7810 C   0  0  0  0  0  0  0  0  0  0  0  0
    0.6870   12.2640   -2.4820 C   0  0  0  0  0  0  0  0  0  0  0  0
   -1.0210   15.9540   -1.1560 C   0  0  0  0  0  0  0  0  0  0  0  0
    0.6610   12.4690   -1.2820 O   0  0  0  0  0  0  0  0  0  0  0  0
    0.6160   11.0120   -2.9510 O   0  0  0  0  0  0  0  0  0  0  0  0
   -2.2140   15.3380   -0.5800 N   0  0  0  0  0  0  0  0  0  0  0  0
   -3.4610   15.2800   -1.1690 C   0  0  0  0  0  0  0  0  0  0  0  0
   -3.5570   15.4220   -2.3790 O   0  0  0  0  0  0  0  0  0  0  0  0
   -4.6940   15.0510   -0.3990 C   0  0  0  0  0  0  0  0  0  0  0  0
   -5.8950   15.0300   -1.0950 C   0  0  0  0  0  0  0  0  0  0  0  0
   -4.7290   14.8510    0.9790 C   0  0  0  0  0  0  0  0  0  0  0  0
   -7.1030   14.8260   -0.5150 N   0  0  0  0  0  0  0  0  0  0  0  0
   -5.9640   14.6430    1.5960 C   0  0  0  0  0  0  0  0  0  0  0  0
   -7.1250   14.6330    0.8230 C   0  0  0  0  0  0  0  0  0  0  0  0
   -8.4630   14.4150    1.4620 C   0  0  0  0  0  0  0  0  0  0  0  0
  1  2  1  0
  2  3  1  0
  2  4  1  0
  3  5  2  0
  4  6  2  0
  5  6  1  0
  4  7  1  0
  5  8  1  0
  6  9  1  0
  7 10  2  0
  8 11  1  6
  8 12  1  0
  9 13  2  0
 10 13  1  0
 11 14  1  0
 12 15  1  0
 14 16  2  0
 14 17  1  0
 15 18  1  0
 18 19  1  0
 19 20  2  0
 19 21  1  0
 21 22  2  0
 21 23  1  0
 22 24  1  0
 23 25  2  0
 24 26  2  0
 25 26  1  0
 26 27  1  0
M  END
