mac-x0555-mac-x0226
     RDKit          3D

 28 31  0  0  0  0  0  0  0  0999 V2000
   -7.4900   14.2720    2.8340 N   0  0  0  0  0  0  0  0  0  0  0  0
   -6.9360   14.5090    1.5770 C   0  0  0  0  0  0  0  0  0  0  0  0
   -7.6830   14.5430    0.4060 C   0  0  0  0  0  0  0  0  0  0  0  0
   -5.5700   14.7310    1.4500 C   0  0  0  0  0  0  0  0  0  0  0  0
   -4.9970   14.9740    0.1990 C   0  0  0  0  0  0  0  0  0  0  0  0
   -7.1710   14.7740   -0.8260 N   0  0  0  0  0  0  0  0  0  0  0  0
   -5.8460   14.9860   -0.9240 C   0  0  0  0  0  0  0  0  0  0  0  0
   -3.6170   15.1950    0.0580 C   0  0  0  0  0  0  0  0  0  0  0  0
   -5.2770   15.2240   -2.1620 C   0  0  0  0  0  0  0  0  0  0  0  0
   -3.0550   15.4300   -1.1980 C   0  0  0  0  0  0  0  0  0  0  0  0
   -1.5670   15.6580   -1.3380 C   0  0  0  0  0  0  0  0  0  0  0  0
   -3.9000   15.4450   -2.3130 C   0  0  0  0  0  0  0  0  0  0  0  0
   -0.7150   14.4110   -1.0770 C   0  0  0  0  0  0  0  0  0  0  0  0
    0.0740   13.9730   -2.3100 C   0  0  0  0  0  0  0  0  0  0  0  0
    0.8530   12.7990   -2.0200 O   0  0  0  0  0  0  0  0  0  0  0  0
    0.4850   11.6550   -2.6620 C   0  0  0  0  0  0  0  0  0  0  0  0
    0.1100   10.6270   -2.0890 O   0  0  0  0  0  0  0  0  0  0  0  0
    0.6030   11.7320   -4.1060 C   0  0  0  0  0  0  0  0  0  0  0  0
    1.3800   12.6090   -4.8950 C   0  0  0  0  0  0  0  0  0  0  0  0
   -0.0300   10.9290   -5.0320 C   0  0  0  0  0  0  0  0  0  0  0  0
    1.2510   12.3690   -6.2040 N   0  0  0  0  0  0  0  0  0  0  0  0
    0.3780   11.3220   -6.2840 N   0  0  0  0  0  0  0  0  0  0  0  0
   -0.0110   10.7480   -7.5290 C   0  0  0  0  0  0  0  0  0  0  0  0
   -1.1690    9.9790   -7.6600 C   0  0  0  0  0  0  0  0  0  0  0  0
    0.7800   10.9500   -8.6500 C   0  0  0  0  0  0  0  0  0  0  0  0
   -1.5030    9.4330   -8.9050 C   0  0  0  0  0  0  0  0  0  0  0  0
    0.4580   10.4150   -9.8880 C   0  0  0  0  0  0  0  0  0  0  0  0
   -0.6910    9.6500  -10.0170 C   0  0  0  0  0  0  0  0  0  0  0  0
  1  2  1  0
  2  3  2  0
  2  4  1  0
  4  5  2  0
  3  6  1  0
  5  7  1  0
  6  7  2  0
  5  8  1  0
  7  9  1  0
  8 10  2  0
 10 11  1  0
  9 12  2  0
 10 12  1  0
 11 13  1  0
 13 14  1  0
 14 15  1  0
 15 16  1  0
 16 17  2  0
 16 18  1  0
 18 19  1  0
 18 20  2  0
 19 21  2  0
 20 22  1  0
 21 22  1  0
 22 23  1  0
 23 24  2  0
 23 25  1  0
 24 26  1  0
 25 27  2  0
 26 28  2  0
 27 28  1  0
M  END
