mac-x0138-mac-x0572
     RDKit          3D

 24 27  0  0  0  0  0  0  0  0999 V2000
   -0.0200   14.5150   -3.1690 C   0  0  0  0  0  0  0  0  0  0  0  0
   -1.1540   14.6380   -2.3120 N   0  0  0  0  0  0  0  0  0  0  0  0
   -2.4250   14.8650   -2.7460 C   0  0  0  0  0  0  0  0  0  0  0  0
   -1.1710   14.5530   -0.9320 C   0  0  0  0  0  0  0  0  0  0  0  0
   -3.2370   14.9370   -1.7400 N   0  0  0  0  0  0  0  0  0  0  0  0
   -2.4470   14.7480   -0.6120 C   0  0  0  0  0  0  0  0  0  0  0  0
   -0.2200   14.3390   -0.0320 N   0  0  0  0  0  0  0  0  0  0  0  0
   -2.8000   14.7410    0.7090 C   0  0  0  0  0  0  0  0  0  0  0  0
   -0.7120   14.3400    1.2500 C   0  0  0  0  0  0  0  0  0  0  0  0
    0.1670   14.1030    2.2280 N   0  0  0  0  0  0  0  0  0  0  0  0
   -1.9620   14.5370    1.7110 N   0  0  0  0  0  0  0  0  0  0  0  0
   -4.1100   14.9930    0.4600 C   0  0  0  0  0  0  0  0  0  0  0  0
   -5.5070   14.8020    0.9010 C   0  0  0  0  0  0  0  0  0  0  0  0
   -3.8970   15.4210   -0.7550 C   0  0  0  0  0  0  0  0  0  0  0  0
   -6.3440   14.4350   -0.3060 C   0  0  1  0  0  0  0  0  0  0  0  0
   -5.9880   14.9320    2.0970 N   0  0  0  0  0  0  0  0  0  0  0  0
   -4.8440   15.7230   -1.6940 C   0  0  0  0  0  0  0  0  0  0  0  0
   -7.3530   14.7350    2.2800 C   0  0  0  0  0  0  0  0  0  0  0  0
   -7.7900   14.5210   -0.1000 C   0  0  0  0  0  0  0  0  0  0  0  0
   -6.0340   15.2700   -1.5120 C   0  0  0  0  0  0  0  0  0  0  0  0
   -7.7620   14.7770    3.7300 C   0  0  0  0  0  0  0  0  0  0  0  0
   -8.5610   14.5780   -1.0530 O   0  0  0  0  0  0  0  0  0  0  0  0
   -8.2650   14.5360    1.2950 C   0  0  0  0  0  0  0  0  0  0  0  0
   -9.6190   14.3460    1.4530 O   0  0  0  0  0  0  0  0  0  0  0  0
  1  2  1  0
  2  3  1  0
  2  4  1  0
  3  5  2  0
  4  6  2  0
  5  6  1  0
  4  7  1  0
  6  8  1  0
  7  9  2  0
  9 10  1  0
  8 11  2  0
  9 11  1  0
  8 12  1  0
 12 13  1  0
 12 14  2  0
 13 15  1  0
 13 16  2  0
 14 17  1  0
 16 18  1  0
 15 19  1  0
 15 20  1  6
 17 20  2  0
 18 21  1  0
 19 22  2  0
 18 23  2  0
 19 23  1  0
 23 24  1  0
M  END
