mac-x0385-diamond-x1012_0_A
     RDKit          3D

 23 24  0  0  0  0  0  0  0  0999 V2000
   -5.3820   15.5050   -0.7820 C   0  0  0  0  0  0  0  0  0  0  0  0
   -3.9950   15.3250   -0.2810 C   0  0  0  0  0  0  0  0  0  0  0  0
   -2.9820   15.0240   -1.1540 C   0  0  0  0  0  0  0  0  0  0  0  0
   -3.6250   15.4400    1.0510 C   0  0  0  0  0  0  0  0  0  0  0  0
   -4.5520   15.7370    2.0380 N   0  0  0  0  0  0  0  0  0  0  0  0
   -2.3820   15.2800    1.4790 N   0  0  0  0  0  0  0  0  0  0  0  0
   -1.7240   14.8590   -0.7610 N   0  0  0  0  0  0  0  0  0  0  0  0
   -1.4980   15.0080    0.5510 C   0  0  0  0  0  0  0  0  0  0  0  0
   -0.1310   14.8360    0.9720 C   0  0  0  0  0  0  0  0  0  0  0  0
    0.1930   13.6110    0.2550 C   0  0  0  0  0  0  0  0  0  0  0  0
    0.8810   13.7820   -1.0710 C   0  0  0  0  0  0  0  0  0  0  0  0
    0.7680   12.4670   -1.6210 N   0  0  0  0  0  0  0  0  0  0  0  0
    0.4400   12.2330   -2.8190 C   0  0  0  0  0  0  0  0  0  0  0  0
    0.3330   10.9870   -3.2930 O   0  0  0  0  0  0  0  0  0  0  0  0
    0.1150   13.3120   -3.8390 C   0  0  0  0  0  0  0  0  0  0  0  0
   -1.3470   13.7210   -3.6860 C   0  0  0  0  0  0  0  0  0  0  0  0
    1.0520   14.5350   -3.7730 C   0  0  0  0  0  0  0  0  0  0  0  0
   -1.7320   14.7550   -4.7340 C   0  0  0  0  0  0  0  0  0  0  0  0
    0.6500   15.5990   -4.7990 C   0  0  0  0  0  0  0  0  0  0  0  0
   -0.7960   15.8830   -4.7930 N   0  0  0  0  0  0  0  0  0  0  0  0
   -1.2090   17.1970   -4.7970 C   0  0  0  0  0  0  0  0  0  0  0  0
   -0.2370   18.1360   -4.7920 N   0  0  0  0  0  0  0  0  0  0  0  0
   -2.3760   17.5650   -4.7940 O   0  0  0  0  0  0  0  0  0  0  0  0
  1  2  1  0
  2  3  2  0
  2  4  1  0
  4  5  1  0
  4  6  2  0
  3  7  1  0
  6  8  1  0
  7  8  2  0
  8  9  1  0
  9 10  1  0
 10 11  1  0
 11 12  1  0
 12 13  2  3
 13 14  1  0
 13 15  1  0
 15 16  1  0
 15 17  1  0
 16 18  1  0
 17 19  1  0
 18 20  1  0
 19 20  1  0
 20 21  1  0
 21 22  1  0
 21 23  2  0
M  END
