mac-x0411-mac-x0379
     RDKit          3D

 23 24  0  0  0  0  0  0  0  0999 V2000
    0.5060    8.3620   -7.2970 Cl  0  0  0  0  0  0  0  0  0  0  0  0
   -0.7630    9.3740   -6.6980 C   0  0  0  0  0  0  0  0  0  0  0  0
   -0.6200   10.7660   -6.4800 C   0  0  0  0  0  0  0  0  0  0  0  0
   -1.9780    8.7470   -6.4460 C   0  0  0  0  0  0  0  0  0  0  0  0
    0.5960   11.3730   -6.7050 O   0  0  0  0  0  0  0  0  0  0  0  0
   -1.7170   11.5260   -6.0480 C   0  0  0  0  0  0  0  0  0  0  0  0
   -3.0600    9.4860   -5.9910 C   0  0  0  0  0  0  0  0  0  0  0  0
   -1.5710   13.0290   -5.8950 C   0  0  0  0  0  0  0  0  0  0  0  0
    1.0850   12.2090   -5.6310 C   0  0  0  0  0  0  0  0  0  0  0  0
   -2.9400   10.8670   -5.7980 C   0  0  0  0  0  0  0  0  0  0  0  0
    0.9150   11.8920   -4.1220 C   0  0  0  0  0  0  0  0  0  0  0  0
   -2.1470   13.8260   -4.7470 C   0  0  0  0  0  0  0  0  0  0  0  0
    1.5110   12.8030   -3.3170 O   0  0  0  0  0  0  0  0  0  0  0  0
    0.3510   10.9480   -3.5990 O   0  0  0  0  0  0  0  0  0  0  0  0
   -1.0390   14.3400   -3.9670 N   0  0  0  0  0  0  0  0  0  0  0  0
   -1.1680   14.8190   -2.8110 C   0  0  0  0  0  0  0  0  0  0  0  0
   -0.1510   15.2920   -2.0720 O   0  0  0  0  0  0  0  0  0  0  0  0
   -2.4560   14.8960   -2.1940 C   0  0  0  0  0  0  0  0  0  0  0  0
   -3.6660   15.1050   -2.8190 C   0  0  0  0  0  0  0  0  0  0  0  0
   -2.7130   14.7390   -0.5060 S   0  0  0  0  0  0  0  0  0  0  0  0
   -4.3910   14.9660   -0.7580 C   0  0  0  0  0  0  0  0  0  0  0  0
   -4.7700   15.1440   -2.0010 N   0  0  0  0  0  0  0  0  0  0  0  0
   -5.3160   14.9490    0.4000 C   0  0  0  0  0  0  0  0  0  0  0  0
  1  2  1  0
  2  3  2  0
  2  4  1  0
  3  5  1  0
  3  6  1  0
  4  7  2  0
  6  8  1  0
  5  9  1  0
  6 10  2  0
  7 10  1  0
  9 11  1  0
  8 12  1  0
 11 13  1  0
 11 14  2  0
 12 15  1  0
 15 16  2  3
 16 17  1  0
 16 18  1  0
 18 19  2  0
 18 20  1  0
 20 21  1  0
 19 22  1  0
 21 22  2  0
 21 23  1  0
M  END
