mac-x0328-mac-x0453
     RDKit          3D

 13 13  0  0  0  0  0  0  0  0999 V2000
   -1.8330   14.7480   -3.8570 O   0  0  0  0  0  0  0  0  0  0  0  0
   -1.8700   14.7280   -2.5070 C   0  0  0  0  0  0  0  0  0  0  0  0
   -0.8860   14.6160   -1.8020 O   0  0  0  0  0  0  0  0  0  0  0  0
   -3.2480   14.8590   -1.9740 C   0  0  0  0  0  0  0  0  0  0  0  0
   -3.4550   14.7280   -0.5980 C   0  0  0  0  0  0  0  0  0  0  0  0
   -4.3230   15.1060   -2.8300 C   0  0  0  0  0  0  0  0  0  0  0  0
   -4.7430   14.8410   -0.0610 C   0  0  0  0  0  0  0  0  0  0  0  0
   -5.6110   15.2230   -2.3030 C   0  0  0  0  0  0  0  0  0  0  0  0
   -4.9420   14.6850    1.4220 C   0  0  0  0  0  0  0  0  0  0  0  0
   -5.8150   15.0900   -0.9310 C   0  0  0  0  0  0  0  0  0  0  0  0
   -7.0760   15.2010   -0.4240 O   0  0  0  0  0  0  0  0  0  0  0  0
   -5.9230   13.5550    1.7560 C   0  0  0  0  0  0  0  0  0  0  0  0
   -6.9430   13.9540    2.7300 N   0  0  0  0  0  0  0  0  0  0  0  0
  1  2  1  0
  2  3  2  0
  2  4  1  0
  4  5  2  0
  4  6  1  0
  5  7  1  0
  6  8  2  0
  7  9  1  0
  7 10  2  0
  8 10  1  0
 10 11  1  0
  9 12  1  0
 12 13  1  0
M  END
