mac-x0116-mac-x0588
     RDKit          3D

 22 25  0  0  0  0  0  0  0  0999 V2000
   -5.9480   14.6800    1.6540 C   0  0  0  0  0  0  0  0  0  0  0  0
   -4.5300   14.9630    1.6020 N   0  0  0  0  0  0  0  0  0  0  0  0
   -3.7440   15.0450    0.4500 C   0  0  0  0  0  0  0  0  0  0  0  0
   -6.3550   13.2540    1.6630 C   0  0  0  0  0  0  0  0  0  0  0  0
   -6.2920   12.5760    0.4790 O   0  0  0  0  0  0  0  0  0  0  0  0
   -6.8170   12.4230    2.6600 C   0  0  0  0  0  0  0  0  0  0  0  0
   -7.0540   11.1770    2.0590 C   0  0  0  0  0  0  0  0  0  0  0  0
   -6.7190   11.3180    0.7330 C   0  0  0  0  0  0  0  0  0  0  0  0
   -4.3290   15.2770   -0.8000 N   0  0  0  0  0  0  0  0  0  0  0  0
   -2.4140   14.8950    0.5640 C   0  0  0  0  0  0  0  0  0  0  0  0
   -3.5500   15.3510   -1.8460 C   0  0  0  0  0  0  0  0  0  0  0  0
   -1.5770   14.9720   -0.6460 C   0  0  0  0  0  0  0  0  0  0  0  0
   -1.6090   14.6630    1.6410 N   0  0  0  0  0  0  0  0  0  0  0  0
   -2.1720   15.2250   -1.8630 N   0  0  0  0  0  0  0  0  0  0  0  0
   -0.3480   14.7660   -0.2850 N   0  0  0  0  0  0  0  0  0  0  0  0
   -0.4410   14.5950    1.0940 C   0  0  0  0  0  0  0  0  0  0  0  0
   -1.4000   15.1210   -3.1230 C   0  0  0  0  0  0  0  0  0  0  0  0
   -0.7110   16.4410   -3.5520 C   0  0  2  0  0  0  0  0  0  0  0  0
   -1.6180   17.3560   -4.2300 O   0  0  0  0  0  0  0  0  0  0  0  0
    0.4400   16.2270   -4.5400 C   0  0  0  0  0  0  0  0  0  0  0  0
    0.5510   17.5890   -5.1780 C   0  0  0  0  0  0  0  0  0  0  0  0
   -0.9040   18.0010   -5.2960 C   0  0  0  0  0  0  0  0  0  0  0  0
  1  2  1  0
  2  3  1  0
  1  4  1  0
  4  5  1  0
  4  6  2  0
  6  7  1  0
  5  8  1  0
  7  8  2  0
  3  9  1  0
  3 10  2  0
  9 11  2  0
 10 12  1  0
 10 13  1  0
 11 14  1  0
 12 14  1  0
 12 15  2  0
 13 16  2  0
 15 16  1  0
 14 17  1  0
 18 17  1  6
 18 19  1  0
 18 20  1  0
 20 21  1  0
 19 22  1  0
 21 22  1  0
M  END
