mac-x0584-mac-x0394
     RDKit          3D

 24 27  0  0  0  0  0  0  0  0999 V2000
    0.3290   16.8200   -4.8730 Cl  0  0  0  0  0  0  0  0  0  0  0  0
   -0.6830   15.2950   -4.8590 C   0  0  1  0  0  0  0  0  0  0  0  0
   -0.4180   14.3110   -3.6370 C   0  0  1  0  0  0  0  0  0  0  0  0
   -2.1480   15.7690   -4.7080 C   0  0  1  0  0  0  0  0  0  0  0  0
   -3.2690   15.2750   -6.0030 Cl  0  0  0  0  0  0  0  0  0  0  0  0
   -0.6420   12.8210   -3.9500 C   0  0  0  0  0  0  0  0  0  0  0  0
    1.0580   14.2720   -3.2810 C   0  0  0  0  0  0  0  0  0  0  0  0
   -1.4330   14.7860   -2.6400 N   0  0  0  0  0  0  0  0  0  0  0  0
   -2.6310   15.1860   -3.3920 C   0  0  0  0  0  0  0  0  0  0  0  0
   -0.2580   11.9680   -2.7580 C   0  0  0  0  0  0  0  0  0  0  0  0
    2.0280   13.7170   -4.3630 C   0  0  0  0  0  0  0  0  0  0  0  0
    1.6070   13.1460   -2.3650 C   0  0  0  0  0  0  0  0  0  0  0  0
   -1.4820   14.7680   -1.2490 C   0  0  0  0  0  0  0  0  0  0  0  0
   -0.0020   10.6920   -3.0710 O   0  0  0  0  0  0  0  0  0  0  0  0
   -0.1540   12.3540   -1.5910 O   0  0  0  0  0  0  0  0  0  0  0  0
    2.0200   12.3870   -3.6220 C   0  0  0  0  0  0  0  0  0  0  0  0
   -0.3680   14.5820   -0.4610 N   0  0  0  0  0  0  0  0  0  0  0  0
   -2.6240   14.9630   -0.5700 C   0  0  0  0  0  0  0  0  0  0  0  0
   -0.4460   14.5660    0.9070 C   0  0  0  0  0  0  0  0  0  0  0  0
   -2.6190   14.9650    0.9100 C   0  0  0  0  0  0  0  0  0  0  0  0
   -3.9920   15.2150   -0.8850 C   0  0  0  0  0  0  0  0  0  0  0  0
   -1.4930   14.7320    1.6300 N   0  0  0  0  0  0  0  0  0  0  0  0
   -3.7900   15.2200    1.4020 N   0  0  0  0  0  0  0  0  0  0  0  0
   -4.6030   15.3610    0.2910 C   0  0  0  0  0  0  0  0  0  0  0  0
  2  1  1  1
  2  3  1  0
  2  4  1  0
  4  5  1  6
  3  6  1  6
  3  7  1  0
  3  8  1  0
  4  9  1  0
  8  9  1  0
  6 10  1  0
  7 11  1  0
  7 12  1  0
  8 13  1  0
 10 14  1  0
 10 15  2  0
 11 16  1  0
 12 16  1  0
 13 17  1  0
 13 18  2  0
 17 19  1  0
 18 20  1  0
 18 21  1  0
 19 22  2  0
 20 22  1  0
 20 23  2  0
 21 24  2  0
 23 24  1  0
M  END
