mac-x0378-diamond-x0173_0_B
     RDKit          3D

 19 20  0  0  0  0  0  0  0  0999 V2000
   16.7120   18.0040  -15.4440 O   0  0  0  0  0  0  0  0  0  0  0  0
   15.3420   17.6200  -15.6620 N   0  0  0  0  0  0  0  0  0  0  0  0
   15.2280   16.2460  -15.8280 C   0  0  0  0  0  0  0  0  0  0  0  0
   16.9080   18.3790  -14.1270 C   0  0  0  0  0  0  0  0  0  0  0  0
   15.9750   19.2240  -13.5380 C   0  0  0  0  0  0  0  0  0  0  0  0
   18.0150   17.9270  -13.3940 C   0  0  0  0  0  0  0  0  0  0  0  0
   16.2110   15.5120  -15.8200 O   0  0  0  0  0  0  0  0  0  0  0  0
   16.1500   19.6120  -12.2130 C   0  0  0  0  0  0  0  0  0  0  0  0
   18.1820   18.3260  -12.0560 C   0  0  0  0  0  0  0  0  0  0  0  0
   13.9420   15.7120  -15.9990 N   0  0  0  0  0  0  0  0  0  0  0  0
   15.2400   20.4230  -11.6690 F   0  0  0  0  0  0  0  0  0  0  0  0
   17.2370   19.1750  -11.4650 C   0  0  0  0  0  0  0  0  0  0  0  0
   13.6760   14.2830  -15.7360 C   0  0  0  0  0  0  0  0  0  0  0  0
   12.8080   16.5840  -16.3790 C   0  0  0  0  0  0  0  0  0  0  0  0
   17.3720   19.6040  -10.1020 C   0  0  0  0  0  0  0  0  0  0  0  0
   12.4810   13.7180  -16.4920 C   0  0  0  0  0  0  0  0  0  0  0  0
   11.5370   15.8450  -16.8640 C   0  0  0  0  0  0  0  0  0  0  0  0
   17.4490   19.9870   -9.0140 N   0  0  0  0  0  0  0  0  0  0  0  0
   11.3330   14.5290  -16.3570 O   0  0  0  0  0  0  0  0  0  0  0  0
  1  2  1  0
  2  3  1  0
  1  4  1  0
  4  5  2  0
  4  6  1  0
  3  7  2  0
  5  8  1  0
  6  9  2  0
  3 10  1  0
  8 11  1  0
  8 12  2  0
  9 12  1  0
 10 13  1  0
 10 14  1  0
 12 15  1  0
 13 16  1  0
 14 17  1  0
 15 18  3  0
 16 19  1  0
 17 19  1  0
M  END
