mac-x0179-diamond-x0844_0_A
     RDKit          3D

 25 27  0  0  0  0  0  0  0  0999 V2000
    1.6870   12.9770   -2.2370 O   0  0  0  0  0  0  0  0  0  0  0  0
    1.0660   12.2240   -3.1630 C   0  0  0  0  0  0  0  0  0  0  0  0
    0.7380   11.0790   -2.8910 O   0  0  0  0  0  0  0  0  0  0  0  0
    0.8360   12.8940   -4.5060 C   0  0  0  0  0  0  0  0  0  0  0  0
    0.0570   12.0700   -5.4060 N   0  0  0  0  0  0  0  0  0  0  0  0
    0.6970   11.5260   -6.4850 C   0  0  0  0  0  0  0  0  0  0  0  0
   -1.1500   11.4630   -5.1870 C   0  0  0  0  0  0  0  0  0  0  0  0
    1.7670   11.8320   -6.9430 O   0  0  0  0  0  0  0  0  0  0  0  0
   -2.0800   11.6800   -4.3210 N   0  0  0  0  0  0  0  0  0  0  0  0
   -0.1290   10.4490   -7.0020 C   0  0  0  0  0  0  0  0  0  0  0  0
   -1.2620   10.3960   -6.2090 C   0  0  0  0  0  0  0  0  0  0  0  0
   -2.1030   12.6960   -3.2550 C   0  0  0  0  0  0  0  0  0  0  0  0
    0.0850    9.5880   -8.0630 C   0  0  0  0  0  0  0  0  0  0  0  0
   -2.2510    9.4550   -6.4460 C   0  0  0  0  0  0  0  0  0  0  0  0
   -3.2890   13.6810   -3.3770 C   0  0  0  0  0  0  0  0  0  0  0  0
   -0.9030    8.6340   -8.3190 C   0  0  0  0  0  0  0  0  0  0  0  0
   -2.0600    8.5670   -7.5170 C   0  0  0  0  0  0  0  0  0  0  0  0
   -3.2340   14.7080   -2.3540 O   0  0  0  0  0  0  0  0  0  0  0  0
   -4.0810   14.4430   -1.2110 C   0  0  1  0  0  0  0  0  0  0  0  0
   -3.4880   14.9670    0.0630 C   0  0  0  0  0  0  0  0  0  0  0  0
   -5.4780   15.0210   -1.4110 C   0  0  0  0  0  0  0  0  0  0  0  0
   -4.2760   15.1580    1.1240 C   0  0  0  0  0  0  0  0  0  0  0  0
   -6.3090   14.9080   -0.1530 C   0  0  0  0  0  0  0  0  0  0  0  0
   -7.5420   14.8440   -0.1630 O   0  0  0  0  0  0  0  0  0  0  0  0
   -5.6080   14.8740    1.0300 N   0  0  0  0  0  0  0  0  0  0  0  0
  1  2  1  0
  2  3  2  0
  2  4  1  0
  4  5  1  0
  5  6  1  0
  5  7  1  0
  6  8  2  0
  7  9  2  3
  6 10  1  0
  7 11  1  0
 10 11  2  0
  9 12  1  0
 10 13  1  0
 11 14  1  0
 12 15  1  0
 13 16  2  0
 14 17  2  0
 16 17  1  0
 15 18  1  0
 19 18  1  6
 19 20  1  0
 19 21  1  0
 20 22  2  0
 21 23  1  0
 23 24  2  0
 22 25  1  0
 23 25  1  0
M  END
