mac-x0398-mac-x0131
     RDKit          3D

 26 30  0  0  0  0  0  0  0  0999 V2000
   -6.6710   14.5960    1.9220 N   0  0  0  0  0  0  0  0  0  0  0  0
   -6.4350   14.7810    0.4870 C   0  0  1  0  0  0  0  0  0  0  0  0
   -5.2060   15.5930    0.1730 C   0  0  0  0  0  0  0  0  0  0  0  0
   -6.5020   13.4590   -0.2830 C   0  0  0  0  0  0  0  0  0  0  0  0
   -5.6170   13.5000   -1.5410 C   0  0  2  0  0  0  0  0  0  0  0  0
   -4.7430   15.6720   -1.0660 C   0  0  0  0  0  0  0  0  0  0  0  0
   -4.3500   13.0140   -1.2160 O   0  0  0  0  0  0  0  0  0  0  0  0
   -5.4360   14.9140   -2.1750 C   0  0  1  0  0  0  0  0  0  0  0  0
   -4.5840   15.0580   -3.4960 C   0  0  0  0  0  0  0  0  0  0  0  0
   -3.5430   14.1140   -1.5190 C   0  0  2  0  0  0  0  0  0  0  0  0
   -3.5510   14.1070   -3.8780 N   0  0  0  0  0  0  0  0  0  0  0  0
   -2.7190   13.8300   -2.7670 C   0  0  1  0  0  0  0  0  0  0  0  0
   -2.5430   14.6540   -0.5610 C   0  0  2  0  0  0  0  0  0  0  0  0
   -1.2310   14.3350   -1.2350 C   0  0  1  0  0  0  0  0  0  0  0  0
   -1.5460   14.7100   -2.6260 N   0  0  0  0  0  0  0  0  0  0  0  0
   -2.4960   14.3670    0.9070 C   0  0  2  0  0  0  0  0  0  0  0  0
   -3.5790   15.0140    1.5960 N   0  0  0  0  0  0  0  0  0  0  0  0
   -1.2950   14.8960    1.5180 N   0  0  0  0  0  0  0  0  0  0  0  0
   -0.1680   15.0710   -0.6160 N   0  0  0  0  0  0  0  0  0  0  0  0
   -0.4550   14.3360   -3.5320 C   0  0  0  0  0  0  0  0  0  0  0  0
   -0.0500   14.7510    0.7910 C   0  0  0  0  0  0  0  0  0  0  0  0
   -0.3280   12.8640   -3.5480 C   0  0  0  0  0  0  0  0  0  0  0  0
    0.5080   11.9760   -2.9140 C   0  0  0  0  0  0  0  0  0  0  0  0
   -1.2140   12.1880   -4.3380 O   0  0  0  0  0  0  0  0  0  0  0  0
   -0.9430   10.8710   -4.1970 C   0  0  0  0  0  0  0  0  0  0  0  0
    0.1030   10.6950   -3.3320 C   0  0  0  0  0  0  0  0  0  0  0  0
  2  1  1  1
  2  3  1  0
  2  4  1  0
  5  4  1  1
  3  6  2  0
  5  7  1  0
  5  8  1  0
  8  6  1  1
  8  9  1  0
 10  7  1  1
  9 11  1  0
 10 12  1  0
 12 11  1  6
 10 13  1  0
 13 14  1  0
 12 15  1  0
 14 15  1  0
 13 16  1  1
 16 17  1  1
 16 18  1  0
 14 19  1  1
 15 20  1  0
 18 21  1  0
 19 21  1  0
 20 22  1  0
 22 23  2  0
 22 24  1  0
 24 25  1  0
 23 26  1  0
 25 26  2  0
M  END
