mac-x0124-diamond-x0900_0_A
     RDKit          3D

 16 18  0  0  0  0  0  0  0  0999 V2000
    0.3410   14.6490   -3.1440 C   0  0  0  0  0  0  0  0  0  0  0  0
   -0.8930   14.7350   -2.4120 N   0  0  0  0  0  0  0  0  0  0  0  0
   -2.1370   14.8710   -2.9670 C   0  0  0  0  0  0  0  0  0  0  0  0
   -0.9880   14.6950   -1.0410 C   0  0  0  0  0  0  0  0  0  0  0  0
   -3.0430   14.9260   -1.9420 C   0  0  0  0  0  0  0  0  0  0  0  0
   -2.3190   14.8170   -0.7150 C   0  0  0  0  0  0  0  0  0  0  0  0
    0.0290   14.5670   -0.1800 N   0  0  0  0  0  0  0  0  0  0  0  0
   -2.6550   14.8180    0.6410 C   0  0  0  0  0  0  0  0  0  0  0  0
   -0.3950   14.5620    1.1050 C   0  0  0  0  0  0  0  0  0  0  0  0
   -1.6610   14.6740    1.5720 N   0  0  0  0  0  0  0  0  0  0  0  0
   -4.1020   15.0100    0.9780 C   0  0  2  0  0  0  0  0  0  0  0  0
   -5.1060   13.8450    0.8300 C   0  0  0  0  0  0  0  0  0  0  0  0
   -4.4810   15.9210   -0.1760 C   0  0  0  0  0  0  0  0  0  0  0  0
   -5.3560   15.1870   -1.0060 N   0  0  0  0  0  0  0  0  0  0  0  0
   -6.0670   14.3650   -0.2140 C   0  0  0  0  0  0  0  0  0  0  0  0
   -7.2530   14.1320   -0.3480 O   0  0  0  0  0  0  0  0  0  0  0  0
  1  2  1  0
  2  3  1  0
  2  4  1  0
  3  5  2  0
  4  6  2  0
  5  6  1  0
  4  7  1  0
  6  8  1  0
  7  9  2  0
  8 10  2  0
  9 10  1  0
 11  8  1  6
 11 12  1  0
 11 13  1  0
 13 14  1  0
 12 15  1  0
 14 15  1  0
 15 16  2  0
M  END
