mac-x0204-mac-x0306
     RDKit          3D

 22 24  0  0  0  0  0  0  0  0999 V2000
    0.6360   12.6720   -2.4550 O   0  0  0  0  0  0  0  0  0  0  0  0
    0.1090   13.8810   -2.6810 C   0  0  0  0  0  0  0  0  0  0  0  0
    0.4540   14.8410   -2.0180 O   0  0  0  0  0  0  0  0  0  0  0  0
   -0.8600   13.8970   -3.8060 C   0  0  0  0  0  0  0  0  0  0  0  0
   -1.8080   14.9200   -3.9640 C   0  0  0  0  0  0  0  0  0  0  0  0
   -0.8300   12.8700   -4.7420 C   0  0  0  0  0  0  0  0  0  0  0  0
   -1.8960   16.0000   -2.9310 C   0  0  0  0  0  0  0  0  0  0  0  0
   -2.6420   14.8620   -5.0870 C   0  0  0  0  0  0  0  0  0  0  0  0
   -1.6530   12.7930   -5.8120 N   0  0  0  0  0  0  0  0  0  0  0  0
   -3.5850   15.7930   -5.4020 O   0  0  0  0  0  0  0  0  0  0  0  0
   -2.5340   13.7990   -5.9630 C   0  0  0  0  0  0  0  0  0  0  0  0
   -3.0550   15.6990   -2.0230 N   0  0  0  0  0  0  0  0  0  0  0  0
   -4.2650   15.2820   -2.6000 C   0  0  0  0  0  0  0  0  0  0  0  0
   -2.8790   15.2700   -0.6980 C   0  0  0  0  0  0  0  0  0  0  0  0
   -5.3730   15.1170   -1.8720 C   0  0  0  0  0  0  0  0  0  0  0  0
   -3.9310   15.0970    0.1330 C   0  0  0  0  0  0  0  0  0  0  0  0
   -5.3250   15.3900   -0.3910 C   0  0  0  0  0  0  0  0  0  0  0  0
   -6.5200   14.8790    0.3970 C   0  0  0  0  0  0  0  0  0  0  0  0
   -6.4860   14.5210    1.7350 N   0  0  0  0  0  0  0  0  0  0  0  0
   -7.7490   14.7220   -0.0690 N   0  0  0  0  0  0  0  0  0  0  0  0
   -8.5080   14.2700    0.9720 C   0  0  0  0  0  0  0  0  0  0  0  0
   -7.7450   14.1390    2.1010 C   0  0  0  0  0  0  0  0  0  0  0  0
  1  2  1  0
  2  3  2  0
  2  4  1  0
  4  5  2  0
  4  6  1  0
  5  7  1  0
  5  8  1  0
  6  9  2  0
  8 10  1  0
  8 11  2  0
  9 11  1  0
  7 12  1  0
 12 13  1  0
 12 14  1  0
 13 15  2  0
 14 16  2  0
 15 17  1  0
 16 17  1  0
 17 18  1  0
 18 19  1  0
 18 20  2  0
 20 21  1  0
 19 22  1  0
 21 22  2  0
M  END
