mac-x0306-mac-x0472
     RDKit          3D

 25 28  0  0  0  0  0  0  0  0999 V2000
   -2.4680   13.9030   -2.5010 S   0  0  0  0  0  0  0  0  0  0  0  0
   -1.6110   13.8200   -1.0310 N   0  0  0  0  0  0  0  0  0  0  0  0
   -2.2040   14.2620    0.0790 C   0  0  0  0  0  0  0  0  0  0  0  0
   -1.5590   13.6080   -3.6550 O   0  0  0  0  0  0  0  0  0  0  0  0
   -3.5350   12.4270   -2.2910 C   0  0  0  0  0  0  0  0  0  0  0  0
   -3.1420   11.2100   -2.8530 C   0  0  0  0  0  0  0  0  0  0  0  0
   -4.7510   12.4790   -1.5870 C   0  0  0  0  0  0  0  0  0  0  0  0
   -1.7220   14.3680    1.2680 N   0  0  0  0  0  0  0  0  0  0  0  0
   -3.7760   14.7910    0.1520 S   0  0  0  0  0  0  0  0  0  0  0  0
   -3.9460   10.0760   -2.7230 C   0  0  0  0  0  0  0  0  0  0  0  0
   -5.5550   11.3440   -1.4580 C   0  0  0  0  0  0  0  0  0  0  0  0
   -3.7510   15.1320    1.7700 C   0  0  0  0  0  0  0  0  0  0  0  0
   -2.5790   14.8530    2.2360 N   0  0  0  0  0  0  0  0  0  0  0  0
   -5.1500   10.1480   -2.0290 C   0  0  0  0  0  0  0  0  0  0  0  0
   -4.8870   14.8620   -1.1230 C   0  0  0  0  0  0  0  0  0  0  0  0
   -4.2600   14.9640   -2.3310 C   0  0  0  0  0  0  0  0  0  0  0  0
   -6.2650   14.8030   -1.0530 C   0  0  0  0  0  0  0  0  0  0  0  0
   -7.0750   14.6950    0.1520 C   0  0  0  0  0  0  0  0  0  0  0  0
   -6.9420   14.8360   -2.2640 C   0  0  0  0  0  0  0  0  0  0  0  0
   -4.8800   14.9910   -3.4990 N   0  0  0  0  0  0  0  0  0  0  0  0
   -6.5480   14.5830    1.4160 N   0  0  0  0  0  0  0  0  0  0  0  0
   -8.3890   14.6870    0.2020 N   0  0  0  0  0  0  0  0  0  0  0  0
   -6.2190   14.9200   -3.4330 C   0  0  0  0  0  0  0  0  0  0  0  0
   -8.7170   14.5670    1.5240 C   0  0  0  0  0  0  0  0  0  0  0  0
   -7.5860   14.5020    2.2990 C   0  0  0  0  0  0  0  0  0  0  0  0
  1  2  1  1
  2  3  1  0
  1  4  2  0
  1  5  1  0
  5  6  2  0
  5  7  1  0
  3  8  1  0
  3  9  2  0
  6 10  1  0
  7 11  2  0
  9 12  1  0
  8 13  1  0
 12 13  2  0
 10 14  2  0
 11 14  1  0
  9 15  1  0
 15 16  2  0
 15 17  1  0
 17 18  1  0
 17 19  2  0
 16 20  1  0
 18 21  1  0
 18 22  2  0
 19 23  1  0
 20 23  2  0
 22 24  1  0
 21 25  1  0
 24 25  2  0
M  END
