mac-x0344-mac-x0123
     RDKit          3D

 28 31  0  0  0  0  0  0  0  0999 V2000
    1.6710   13.7560   -4.9600 O   0  0  0  0  0  0  0  0  0  0  0  0
    1.1890   12.9790   -3.9890 C   0  0  0  0  0  0  0  0  0  0  0  0
    1.4950   13.0150   -2.8080 O   0  0  0  0  0  0  0  0  0  0  0  0
    0.1510   11.9760   -4.5410 C   0  0  0  0  0  0  0  0  0  0  0  0
   -1.0200   11.8220   -4.0750 N   0  0  0  0  0  0  0  0  0  0  0  0
    0.4390   11.2060   -5.6200 N   0  0  0  0  0  0  0  0  0  0  0  0
   -1.4960   12.6710   -3.0270 C   0  0  0  0  0  0  0  0  0  0  0  0
   -0.5690   10.3950   -6.1950 C   0  0  0  0  0  0  0  0  0  0  0  0
   -2.2180   13.7260   -3.8760 C   0  0  0  0  0  0  0  0  0  0  0  0
   -0.3840    9.8900   -7.4790 C   0  0  0  0  0  0  0  0  0  0  0  0
   -1.7510   10.0830   -5.4990 C   0  0  0  0  0  0  0  0  0  0  0  0
   -2.4330   15.0560   -3.2020 C   0  0  0  0  0  0  0  0  0  0  0  0
   -1.3600    9.0830   -8.0670 C   0  0  0  0  0  0  0  0  0  0  0  0
   -2.7270    9.2770   -6.0890 C   0  0  0  0  0  0  0  0  0  0  0  0
   -2.5300    8.7770   -7.3730 C   0  0  0  0  0  0  0  0  0  0  0  0
   -3.4870   14.9510   -2.1930 C   0  0  0  0  0  0  0  0  0  0  0  0
   -4.8170   14.8860   -2.5210 N   0  0  0  0  0  0  0  0  0  0  0  0
   -3.1890   14.9000   -0.9070 N   0  0  0  0  0  0  0  0  0  0  0  0
   -4.4100   14.7890   -0.3500 N   0  0  0  0  0  0  0  0  0  0  0  0
   -5.3960   14.7850   -1.3470 C   0  0  0  0  0  0  0  0  0  0  0  0
   -4.7110   14.6780    1.0160 C   0  0  0  0  0  0  0  0  0  0  0  0
   -6.7230   14.6850   -1.0590 N   0  0  0  0  0  0  0  0  0  0  0  0
   -3.6340   14.6840    1.8980 N   0  0  0  0  0  0  0  0  0  0  0  0
   -6.9920   14.5850    0.2030 C   0  0  0  0  0  0  0  0  0  0  0  0
   -6.0080   14.5580    1.3300 C   0  0  0  0  0  0  0  0  0  0  0  0
   -6.7440   14.3920    2.6040 C   0  0  0  0  0  0  0  0  0  0  0  0
   -8.3910   14.4900    0.7250 C   0  0  0  0  0  0  0  0  0  0  0  0
   -8.1960   14.1210    2.1990 C   0  0  0  0  0  0  0  0  0  0  0  0
  1  2  1  0
  2  3  2  0
  2  4  1  0
  4  5  2  3
  4  6  1  0
  5  7  1  0
  6  8  1  0
  7  9  1  0
  8 10  2  0
  8 11  1  0
  9 12  1  0
 10 13  1  0
 11 14  2  0
 13 15  2  0
 14 15  1  0
 12 16  1  0
 16 17  1  0
 16 18  2  0
 18 19  1  0
 17 20  2  0
 19 20  1  0
 19 21  1  0
 20 22  1  0
 21 23  1  0
 22 24  2  0
 21 25  2  0
 24 25  1  0
 25 26  1  0
 24 27  1  0
 26 28  1  0
 27 28  1  0
M  END
