mac-x0321-mac-x0455
     RDKit          3D

 19 20  0  0  0  0  0  0  0  0999 V2000
   -4.4160   15.4600    1.5440 Cl  0  0  0  0  0  0  0  0  0  0  0  0
   -4.2820   15.2370   -0.1460 C   0  0  0  0  0  0  0  0  0  0  0  0
   -3.0360   14.9280   -0.6730 C   0  0  0  0  0  0  0  0  0  0  0  0
   -5.3910   15.3680   -0.9700 C   0  0  0  0  0  0  0  0  0  0  0  0
   -2.8620   14.7420   -2.0530 C   0  0  0  0  0  0  0  0  0  0  0  0
   -5.2420   15.1840   -2.3440 C   0  0  0  0  0  0  0  0  0  0  0  0
   -1.4730   14.4300   -2.5330 C   0  0  0  0  0  0  0  0  0  0  0  0
   -3.9830   14.8740   -2.8880 C   0  0  0  0  0  0  0  0  0  0  0  0
   -0.2720   14.9740   -1.8920 C   0  0  0  0  0  0  0  0  0  0  0  0
   -0.9040   13.6730   -3.4740 C   0  0  0  0  0  0  0  0  0  0  0  0
    0.4620   13.7540   -3.5410 O   0  0  0  0  0  0  0  0  0  0  0  0
    0.3580   15.9390   -2.2610 O   0  0  0  0  0  0  0  0  0  0  0  0
    0.1510   14.2160   -0.8680 O   0  0  0  0  0  0  0  0  0  0  0  0
   -1.2670   12.7230   -4.5060 C   0  0  0  0  0  0  0  0  0  0  0  0
   -2.4720   12.0390   -4.5870 C   0  0  0  0  0  0  0  0  0  0  0  0
   -0.2570   12.4940   -5.4560 C   0  0  0  0  0  0  0  0  0  0  0  0
   -2.6600   11.1200   -5.6210 C   0  0  0  0  0  0  0  0  0  0  0  0
   -0.4420   11.5850   -6.4810 C   0  0  0  0  0  0  0  0  0  0  0  0
   -1.6460   10.8950   -6.5620 C   0  0  0  0  0  0  0  0  0  0  0  0
  1  2  1  0
  2  3  2  0
  2  4  1  0
  3  5  1  0
  4  6  2  0
  5  7  1  0
  5  8  2  0
  6  8  1  0
  7  9  1  0
  7 10  2  3
 10 11  1  0
  9 12  2  0
  9 13  1  0
 10 14  1  0
 14 15  2  0
 14 16  1  0
 15 17  1  0
 16 18  2  0
 17 19  2  0
 18 19  1  0
M  END
