mac-x0398-diamond-x0371_0_A
     RDKit          3D

 24 26  0  0  0  0  0  0  0  0999 V2000
   -5.6370   15.2940    2.1420 N   0  0  0  0  0  0  0  0  0  0  0  0
   -5.1760   15.0290    0.7930 C   0  0  2  0  0  0  0  0  0  0  0  0
   -4.0260   14.0870    0.7880 C   0  0  0  0  0  0  0  0  0  0  0  0
   -4.5240   16.2280    0.2210 C   0  0  0  0  0  0  0  0  0  0  0  0
   -6.3470   14.6650   -0.1230 C   0  0  1  0  0  0  0  0  0  0  0  0
   -5.8950   14.0570   -1.4700 C   0  0  1  0  0  0  0  0  0  0  0  0
   -3.6310   13.5480   -0.3580 C   0  0  0  0  0  0  0  0  0  0  0  0
   -7.4370   13.7510    0.4820 C   0  0  2  0  0  0  0  0  0  0  0  0
   -6.3740   14.9280   -2.4950 O   0  0  0  0  0  0  0  0  0  0  0  0
   -7.4770   13.7710    2.0360 C   0  0  0  0  0  0  0  0  0  0  0  0
   -4.3480   13.8230   -1.6640 C   0  0  2  0  0  0  0  0  0  0  0  0
   -6.7020   12.8140   -1.5600 N   0  0  0  0  0  0  0  0  0  0  0  0
   -7.0600   12.4280   -0.1680 C   0  0  0  0  0  0  0  0  0  0  0  0
   -3.6040   14.8060   -2.5870 C   0  0  0  0  0  0  0  0  0  0  0  0
   -8.7570   14.1270    2.6620 N   0  0  0  0  0  0  0  0  0  0  0  0
   -4.0400   15.3830   -3.5700 O   0  0  0  0  0  0  0  0  0  0  0  0
   -2.3070   15.0000   -2.2600 O   0  0  0  0  0  0  0  0  0  0  0  0
   -8.9730   15.3340    3.3510 C   0  0  0  0  0  0  0  0  0  0  0  0
   -9.3860   16.3200    2.7430 O   0  0  0  0  0  0  0  0  0  0  0  0
   -8.7240   15.3710    4.7960 C   0  0  0  0  0  0  0  0  0  0  0  0
   -8.1180   14.2950    5.3940 O   0  0  0  0  0  0  0  0  0  0  0  0
   -8.9830   16.3210    5.7750 C   0  0  0  0  0  0  0  0  0  0  0  0
   -8.5140   15.7960    7.0090 C   0  0  0  0  0  0  0  0  0  0  0  0
   -7.9940   14.5600    6.7180 C   0  0  0  0  0  0  0  0  0  0  0  0
  2  1  1  0
  2  3  1  0
  2  4  1  6
  2  5  1  0
  5  6  1  0
  3  7  2  0
  5  8  1  1
  6  9  1  6
  8 10  1  1
  6 11  1  0
  7 11  1  0
  6 12  1  0
  8 13  1  0
 12 13  1  0
 11 14  1  1
 10 15  1  0
 14 16  2  0
 14 17  1  0
 15 18  1  0
 18 19  2  0
 18 20  1  0
 20 21  1  0
 20 22  2  0
 22 23  1  0
 21 24  1  0
 23 24  2  0
M  END
