mac-x0402-diamond-x0591_0_A
     RDKit          3D

 18 20  0  0  0  0  0  0  0  0999 V2000
   -1.9300   14.7630   -3.3910 C   0  0  0  0  0  0  0  0  0  0  0  0
   -1.1300   15.6240   -4.7620 N   0  0  0  0  0  0  0  0  0  0  0  0
   -1.8430   13.2890   -5.0680 O   0  0  0  0  0  0  0  0  0  0  0  0
   -3.0790   15.1270   -6.1700 O   0  0  0  0  0  0  0  0  0  0  0  0
   -3.1650   14.8840   -2.0940 C   0  0  0  0  0  0  0  0  0  0  0  0
   -4.4610   15.1570   -2.4990 C   0  0  0  0  0  0  0  0  0  0  0  0
   -2.8630   14.7340   -0.7430 C   0  0  0  0  0  0  0  0  0  0  0  0
   -3.9040   14.8440    0.1960 C   0  0  0  0  0  0  0  0  0  0  0  0
   -5.4810   15.2850   -1.5960 C   0  0  1  0  0  0  0  0  0  0  0  0
   -6.2620   14.7340   -0.4220 C   0  0  0  0  0  0  0  0  0  0  0  0
   -5.1850   15.1190   -0.2380 C   0  0  0  0  0  0  0  0  0  0  0  0
   -3.9850   14.7830    1.0260 C   0  0  0  0  0  0  0  0  0  0  0  0
   -5.8310   14.5730    0.8250 N   0  0  0  0  0  0  0  0  0  0  0  0
   -7.4550   14.8430   -0.6940 O   0  0  0  0  0  0  0  0  0  0  0  0
   -5.7120   15.0350    1.9840 C   0  0  0  0  0  0  0  0  0  0  0  0
   -4.0650   14.7220    1.8570 S   0  0  0  0  0  0  0  0  0  0  0  0
   -6.5330   15.0760    3.1720 N   0  0  0  0  0  0  0  0  0  0  0  0
   -4.8890   14.8780    1.9210 C   0  0  0  0  0  0  0  0  0  0  0  0
  1  2  1  0
  1  3  1  0
  1  4  1  0
  1  5  1  0
  5  6  1  0
  5  7  1  0
  7  8  1  0
  9  6  1  6
  9 10  1  0
  8 11  1  0
  9 11  1  0
  8 12  1  0
 10 13  1  0
 10 14  2  0
 11 15  1  0
 12 16  2  0
 13 17  1  0
 15 17  1  0
 15 18  1  0
 16 18  2  0
M  END
