mac-x0123-mac-x0163
     RDKit          3D

 29 34  0  0  0  0  0  0  0  0999 V2000
   -3.7220   14.9490    1.4400 N   0  0  0  0  0  0  0  0  0  0  0  0
   -4.8520   14.7320    0.6610 C   0  0  0  0  0  0  0  0  0  0  0  0
   -6.0960   14.5830    1.1350 C   0  0  0  0  0  0  0  0  0  0  0  0
   -2.3990   14.8550    0.9170 C   0  0  0  0  0  0  0  0  0  0  0  0
   -4.7000   14.6380   -0.7450 N   0  0  0  0  0  0  0  0  0  0  0  0
   -2.0800   15.1630   -0.4240 C   0  0  0  0  0  0  0  0  0  0  0  0
   -1.4730   14.4470    1.7730 N   0  0  0  0  0  0  0  0  0  0  0  0
   -3.2900   15.7200   -1.5160 Cl  0  0  0  0  0  0  0  0  0  0  0  0
   -5.7900   14.4640   -1.6120 C   0  0  0  0  0  0  0  0  0  0  0  0
   -7.1880   14.4220    0.1360 C   0  0  0  0  0  0  0  0  0  0  0  0
   -6.6770   14.5500    2.4990 C   0  0  0  0  0  0  0  0  0  0  0  0
   -3.5640   14.6780   -1.4950 N   0  0  0  0  0  0  0  0  0  0  0  0
   -0.7470   14.9940   -0.8260 C   0  0  0  0  0  0  0  0  0  0  0  0
   -0.2480   14.3270    1.3050 C   0  0  0  0  0  0  0  0  0  0  0  0
   -7.0680   14.3700   -1.1470 N   0  0  0  0  0  0  0  0  0  0  0  0
   -8.5170   14.3520    0.8140 C   0  0  0  0  0  0  0  0  0  0  0  0
   -8.1730   14.2750    2.3000 C   0  0  0  0  0  0  0  0  0  0  0  0
   -5.3580   14.4070   -2.8550 N   0  0  0  0  0  0  0  0  0  0  0  0
   -4.0190   14.5380   -2.7350 C   0  0  0  0  0  0  0  0  0  0  0  0
    0.1620   14.5730    0.0560 N   0  0  0  0  0  0  0  0  0  0  0  0
   -0.2360   15.2380   -2.1570 N   0  0  0  0  0  0  0  0  0  0  0  0
    0.9350   14.5910   -2.7500 C   0  0  0  0  0  0  0  0  0  0  0  0
   -1.1330   15.9120   -3.1310 C   0  0  0  0  0  0  0  0  0  0  0  0
    1.3340   15.2740   -4.0500 C   0  0  0  0  0  0  0  0  0  0  0  0
    0.8070   13.0310   -2.8740 C   0  0  0  0  0  0  0  0  0  0  0  0
    2.0750   14.1870   -1.7720 C   0  0  0  0  0  0  0  0  0  0  0  0
   -1.1570   15.1710   -4.4840 C   0  0  0  0  0  0  0  0  0  0  0  0
    0.2400   15.0700   -5.0920 C   0  0  0  0  0  0  0  0  0  0  0  0
    2.3440   13.0740   -2.7880 C   0  0  0  0  0  0  0  0  0  0  0  0
  1  2  1  0
  2  3  2  0
  1  4  1  0
  2  5  1  0
  4  6  2  0
  4  7  1  0
  6  8  1  0
  5  9  1  0
  3 10  1  0
  3 11  1  0
  5 12  1  0
  6 13  1  0
  7 14  2  0
  9 15  1  0
 10 15  2  0
 10 16  1  0
 11 17  1  0
 16 17  1  0
  9 18  2  0
 12 19  2  0
 18 19  1  0
 13 20  2  0
 14 20  1  0
 13 21  1  0
 22 21  1  0
 21 23  1  0
 22 24  1  0
 22 25  1  0
 22 26  1  0
 23 27  1  0
 24 28  1  0
 27 28  1  0
 25 29  1  0
 26 29  1  0
M  END
