mac-x0148-mac-x0159
     RDKit          3D

 25 29  0  0  0  0  0  0  0  0999 V2000
   -2.7590   15.7470   -3.0270 C   0  0  0  0  0  0  0  0  0  0  0  0
   -1.5640   16.5350   -3.6380 C   0  0  0  0  0  0  0  0  0  0  0  0
   -0.1890   16.5430   -3.3330 C   0  0  0  0  0  0  0  0  0  0  0  0
   -2.8500   15.5580   -1.5450 C   0  0  0  0  0  0  0  0  0  0  0  0
   -1.8340   14.9540   -0.8400 C   0  0  0  0  0  0  0  0  0  0  0  0
   -3.7980   15.8520   -0.6100 C   0  0  0  0  0  0  0  0  0  0  0  0
   -1.8760   17.3970   -4.6850 N   0  0  0  0  0  0  0  0  0  0  0  0
   -2.2500   15.0490    0.5800 C   0  0  0  0  0  0  0  0  0  0  0  0
   -0.7200   14.3570   -1.1920 C   0  0  0  0  0  0  0  0  0  0  0  0
   -3.4490   15.5470    0.7070 N   0  0  0  0  0  0  0  0  0  0  0  0
   -0.8190   18.0030   -5.1610 C   0  0  0  0  0  0  0  0  0  0  0  0
    0.6600   17.6200   -4.3810 S   0  0  0  0  0  0  0  0  0  0  0  0
   -0.8700   18.9600   -6.2970 C   0  0  0  0  0  0  0  0  0  0  0  0
   -0.2770   14.1370   -2.5190 N   0  0  0  0  0  0  0  0  0  0  0  0
    0.0470   13.9180   -0.1350 N   0  0  0  0  0  0  0  0  0  0  0  0
   -1.4610   14.5990    1.5910 N   0  0  0  0  0  0  0  0  0  0  0  0
   -1.0650   14.3210   -3.8190 C   0  0  2  0  0  0  0  0  0  0  0  0
    0.7930   13.1340   -2.6540 C   0  0  0  0  0  0  0  0  0  0  0  0
   -0.3610   14.0680    1.1740 C   0  0  0  0  0  0  0  0  0  0  0  0
   -2.4900   14.8650   -3.8850 C   0  0  0  0  0  0  0  0  0  0  0  0
   -1.4600   12.9990   -4.4720 C   0  0  1  0  0  0  0  0  0  0  0  0
    0.2210   11.8430   -3.2370 C   0  0  0  0  0  0  0  0  0  0  0  0
   -2.2540   13.4340   -5.6800 C   0  0  0  0  0  0  0  0  0  0  0  0
   -2.8940   14.6580   -5.2710 O   0  0  0  0  0  0  0  0  0  0  0  0
   -0.2770   12.0930   -4.6520 C   0  0  0  0  0  0  0  0  0  0  0  0
  1  2  1  0
  2  3  2  0
  1  4  1  0
  4  5  1  0
  4  6  2  0
  2  7  1  0
  5  8  1  0
  5  9  2  0
  6 10  1  0
  8 10  2  0
  7 11  2  0
  3 12  1  0
 11 12  1  0
 11 13  1  0
  9 14  1  0
  9 15  1  0
  8 16  1  0
 14 17  1  0
 14 18  1  0
 15 19  1  0
 16 19  2  0
 17 20  1  1
 17 21  1  0
 18 22  1  0
 21 23  1  6
 20 24  1  0
 23 24  1  0
 21 25  1  0
 22 25  1  0
M  END
