mac-x0179-mac-x0354
     RDKit          3D

 15 16  0  0  0  0  0  0  0  0999 V2000
    1.5060   12.9040   -2.2160 O   0  0  0  0  0  0  0  0  0  0  0  0
    0.9160   12.1450   -3.1670 C   0  0  0  0  0  0  0  0  0  0  0  0
    0.6540   10.9700   -2.9550 O   0  0  0  0  0  0  0  0  0  0  0  0
    0.6260   12.8550   -4.4810 C   0  0  0  0  0  0  0  0  0  0  0  0
    0.0180   11.9800   -5.4670 N   0  0  0  0  0  0  0  0  0  0  0  0
    0.7110   11.4930   -6.5260 C   0  0  0  0  0  0  0  0  0  0  0  0
   -1.0930   11.2310   -5.2260 C   0  0  0  0  0  0  0  0  0  0  0  0
    1.7820   11.8490   -6.9340 O   0  0  0  0  0  0  0  0  0  0  0  0
   -1.8680   11.3700   -4.2970 O   0  0  0  0  0  0  0  0  0  0  0  0
   -0.0730   10.3960   -7.0950 C   0  0  0  0  0  0  0  0  0  0  0  0
   -1.1870   10.2310   -6.2900 C   0  0  0  0  0  0  0  0  0  0  0  0
    0.1490    9.6040   -8.2050 C   0  0  0  0  0  0  0  0  0  0  0  0
   -2.1430    9.2660   -6.5420 C   0  0  0  0  0  0  0  0  0  0  0  0
   -0.8050    8.6200   -8.4850 C   0  0  0  0  0  0  0  0  0  0  0  0
   -1.9390    8.4510   -7.6630 C   0  0  0  0  0  0  0  0  0  0  0  0
  1  2  1  0
  2  3  2  0
  2  4  1  0
  4  5  1  0
  5  6  1  0
  5  7  1  0
  6  8  2  0
  7  9  2  0
  6 10  1  0
  7 11  1  0
 10 11  2  0
 10 12  1  0
 11 13  1  0
 12 14  2  0
 13 15  2  0
 14 15  1  0
M  END
