mac-x0190-diamond-x0895_0_A
     RDKit          3D

 12 13  0  0  0  0  0  0  0  0999 V2000
   -9.0630   15.1690    2.5040 O   0  0  0  0  0  0  0  0  0  0  0  0
   -8.6900   14.1540    1.5840 C   0  0  0  0  0  0  0  0  0  0  0  0
   -7.4070   14.4840    0.8510 C   0  0  0  0  0  0  0  0  0  0  0  0
   -7.3570   14.8490   -0.3950 N   0  0  0  0  0  0  0  0  0  0  0  0
   -6.1920   14.3900    1.5350 N   0  0  0  0  0  0  0  0  0  0  0  0
   -6.0240   15.0040   -0.6200 C   0  0  0  0  0  0  0  0  0  0  0  0
   -5.3140   14.7080    0.6210 C   0  0  0  0  0  0  0  0  0  0  0  0
   -5.3680   15.3470   -1.7170 C   0  0  0  0  0  0  0  0  0  0  0  0
   -3.8020   14.8050    0.6550 C   0  0  0  0  0  0  0  0  0  0  0  0
   -3.0890   14.6030    1.6390 O   0  0  0  0  0  0  0  0  0  0  0  0
   -3.9280   15.4230   -1.7170 C   0  0  0  0  0  0  0  0  0  0  0  0
   -3.1800   15.1680   -0.6320 C   0  0  0  0  0  0  0  0  0  0  0  0
  1  2  1  0
  2  3  1  0
  3  4  2  0
  3  5  1  0
  4  6  1  0
  5  7  2  0
  6  7  1  0
  6  8  2  0
  7  9  1  0
  9 10  2  0
  8 11  1  0
  9 12  1  0
 11 12  2  0
M  END
