mac-x0357-diamond-x0524_0_A
     RDKit          3D

 29 31  0  0  0  0  0  0  0  0999 V2000
    2.4350   13.1210   -4.6130 C   0  0  0  0  0  0  0  0  0  0  0  0
    1.0410   12.5700   -4.7760 C   0  0  0  0  0  0  0  0  0  0  0  0
    0.6680   11.8710   -5.9370 C   0  0  0  0  0  0  0  0  0  0  0  0
    0.0510   12.7300   -3.7750 C   0  0  0  0  0  0  0  0  0  0  0  0
    1.5620   11.6790   -6.9350 O   0  0  0  0  0  0  0  0  0  0  0  0
    0.2470   13.4360   -2.4970 C   0  0  0  0  0  0  0  0  0  0  0  0
   -1.2370   12.2090   -3.9340 C   0  0  0  0  0  0  0  0  0  0  0  0
   -0.6280   11.3660   -6.0650 C   0  0  0  0  0  0  0  0  0  0  0  0
   -0.3340   14.4440   -2.1500 O   0  0  0  0  0  0  0  0  0  0  0  0
    1.1540   12.8480   -1.7100 O   0  0  0  0  0  0  0  0  0  0  0  0
    0.9120   10.8890   -7.9250 C   0  0  0  0  0  0  0  0  0  0  0  0
   -1.5740   11.5270   -5.0790 C   0  0  0  0  0  0  0  0  0  0  0  0
   -0.4650   10.5590   -7.5460 N   0  0  0  0  0  0  0  0  0  0  0  0
   -0.9730    9.3850   -7.6390 C   0  0  0  0  0  0  0  0  0  0  0  0
   -0.2860    8.3190   -8.1450 N   0  0  0  0  0  0  0  0  0  0  0  0
   -2.3970    9.0740   -7.1860 C   0  0  0  0  0  0  0  0  0  0  0  0
    0.7460    8.3600   -9.0850 C   0  0  0  0  0  0  0  0  0  0  0  0
    1.8790    7.5700   -9.0290 C   0  0  0  0  0  0  0  0  0  0  0  0
    0.6330    9.2640  -10.1550 C   0  0  0  0  0  0  0  0  0  0  0  0
    2.8780    7.6640   -9.9990 C   0  0  0  0  0  0  0  0  0  0  0  0
    1.6310    9.3610  -11.1310 C   0  0  0  0  0  0  0  0  0  0  0  0
    2.7680    8.5570  -11.0630 C   0  0  0  0  0  0  0  0  0  0  0  0
    3.7570    8.6620  -12.0490 N   0  0  0  0  0  0  0  0  0  0  0  0
    3.9780    9.5720  -13.0900 C   0  0  0  0  0  0  0  0  0  0  0  0
    3.2140   10.7240  -13.3020 C   0  0  0  0  0  0  0  0  0  0  0  0
    5.0320    9.3040  -13.9680 C   0  0  0  0  0  0  0  0  0  0  0  0
    3.4970   11.5830  -14.3630 C   0  0  0  0  0  0  0  0  0  0  0  0
    5.3180   10.1590  -15.0300 C   0  0  0  0  0  0  0  0  0  0  0  0
    4.5500   11.3010  -15.2280 C   0  0  0  0  0  0  0  0  0  0  0  0
  1  2  1  0
  2  3  2  0
  2  4  1  0
  3  5  1  0
  4  6  1  0
  4  7  2  0
  3  8  1  0
  6  9  2  0
  6 10  1  0
  5 11  1  0
  7 12  1  0
  8 12  2  0
 11 13  1  0
 13 14  2  3
 14 15  1  0
 14 16  1  0
 15 17  1  0
 17 18  2  0
 17 19  1  0
 18 20  1  0
 19 21  2  0
 20 22  2  0
 21 22  1  0
 22 23  1  0
 23 24  1  0
 24 25  2  0
 24 26  1  0
 25 27  1  0
 26 28  2  0
 27 29  2  0
 28 29  1  0
M  END
