mac-x0301-mac-x0132
     RDKit          3D

 21 24  0  0  0  0  0  0  0  0999 V2000
    0.1930   14.7740   -2.9530 O   0  0  0  0  0  0  0  0  0  0  0  0
   -1.1330   14.6840   -3.1600 C   0  0  0  0  0  0  0  0  0  0  0  0
   -1.5940   14.5540   -4.2790 O   0  0  0  0  0  0  0  0  0  0  0  0
   -1.8900   14.7500   -1.8820 C   0  0  0  0  0  0  0  0  0  0  0  0
   -1.1700   14.7700   -0.6870 C   0  0  0  0  0  0  0  0  0  0  0  0
   -3.3270   14.7840   -1.7770 C   0  0  0  0  0  0  0  0  0  0  0  0
   -1.8070   14.8240    0.5260 C   0  0  0  0  0  0  0  0  0  0  0  0
   -3.9170   14.8200   -0.4790 C   0  0  0  0  0  0  0  0  0  0  0  0
    0.1550   14.7450   -0.5040 O   0  0  0  0  0  0  0  0  0  0  0  0
   -4.2420   14.7740   -2.8500 C   0  0  0  0  0  0  0  0  0  0  0  0
   -3.1150   14.8470    0.6360 C   0  0  0  0  0  0  0  0  0  0  0  0
   -1.0290   14.8480    1.6050 O   0  0  0  0  0  0  0  0  0  0  0  0
    0.1900   14.6400    0.9330 C   0  0  0  0  0  0  0  0  0  0  0  0
   -5.3150   14.8140   -0.2580 C   0  0  0  0  0  0  0  0  0  0  0  0
   -5.6340   14.7780   -2.6110 C   0  0  0  0  0  0  0  0  0  0  0  0
   -5.9510   14.8240    0.9960 C   0  0  0  0  0  0  0  0  0  0  0  0
   -6.1750   14.7880   -1.3310 C   0  0  0  0  0  0  0  0  0  0  0  0
   -5.2270   14.8750    2.1790 N   0  0  0  0  0  0  0  0  0  0  0  0
   -7.5020   14.7690   -1.1930 N   0  0  0  0  0  0  0  0  0  0  0  0
   -7.2710   14.7910    1.1740 N   0  0  0  0  0  0  0  0  0  0  0  0
   -7.9890   14.7670    0.0590 C   0  0  0  0  0  0  0  0  0  0  0  0
  1  2  1  0
  2  3  2  0
  2  4  1  0
  4  5  2  0
  4  6  1  0
  5  7  1  0
  6  8  2  0
  5  9  1  0
  6 10  1  0
  7 11  2  0
  8 11  1  0
  7 12  1  0
  9 13  1  0
 12 13  1  0
  8 14  1  0
 10 15  2  0
 14 16  2  0
 14 17  1  0
 15 17  1  0
 16 18  1  0
 17 19  2  0
 16 20  1  0
 19 21  1  0
 20 21  2  0
M  END
