mac-x0412-mac-x0301
     RDKit          3D

 18 20  0  0  0  0  0  0  0  0999 V2000
   -7.4540   14.7390   -0.8740 O   0  0  0  0  0  0  0  0  0  0  0  0
   -6.4780   14.9870   -0.1680 C   0  0  0  0  0  0  0  0  0  0  0  0
   -6.5490   14.7120    1.1620 N   0  0  0  0  0  0  0  0  0  0  0  0
   -5.1610   15.6300   -0.6740 C   0  0  1  0  0  0  0  0  0  0  0  0
   -3.8890   15.5420    0.2400 C   0  0  1  0  0  0  0  0  0  0  0  0
   -5.5540   14.9520    2.0400 C   0  0  0  0  0  0  0  0  0  0  0  0
   -4.9420   15.3470   -2.1160 C   0  0  0  0  0  0  0  0  0  0  0  0
   -4.3160   15.3140    1.6780 C   0  0  0  0  0  0  0  0  0  0  0  0
   -2.5610   14.8220   -0.3050 C   0  0  1  0  0  0  0  0  0  0  0  0
   -3.8140   14.8690   -2.6420 C   0  0  0  0  0  0  0  0  0  0  0  0
   -2.5620   14.5020   -1.8740 C   0  0  1  0  0  0  0  0  0  0  0  0
   -1.3410   15.4560    0.2710 O   0  0  0  0  0  0  0  0  0  0  0  0
   -2.2490   13.5270    0.3260 C   0  0  0  0  0  0  0  0  0  0  0  0
   -1.3540   14.8000   -2.8020 C   0  0  0  0  0  0  0  0  0  0  0  0
   -0.8610   13.2760   -0.0250 O   0  0  0  0  0  0  0  0  0  0  0  0
   -0.3150   14.4780    0.4710 C   0  0  0  0  0  0  0  0  0  0  0  0
   -0.1580   14.9770   -2.2070 O   0  0  0  0  0  0  0  0  0  0  0  0
   -1.4020   14.8580   -4.0250 O   0  0  0  0  0  0  0  0  0  0  0  0
  1  2  2  0
  2  3  1  0
  2  4  1  0
  4  5  1  0
  3  6  1  0
  4  7  1  6
  5  8  1  1
  6  8  2  0
  5  9  1  0
  7 10  2  0
  9 11  1  0
 10 11  1  0
  9 12  1  0
  9 13  1  1
 11 14  1  6
 13 15  1  0
 12 16  1  0
 15 16  1  0
 14 17  1  0
 14 18  2  0
M  END
