mac-x0453-mac-x0282
     RDKit          3D

 13 14  0  0  0  0  0  0  0  0999 V2000
   -7.1900   13.5830    2.8070 N   0  0  0  0  0  0  0  0  0  0  0  0
   -6.3280   13.3010    1.6680 C   0  0  0  0  0  0  0  0  0  0  0  0
   -5.9650   14.6080    0.9780 C   0  0  0  0  0  0  0  0  0  0  0  0
   -4.6560   14.5050    0.2000 C   0  0  2  0  0  0  0  0  0  0  0  0
   -3.5410   15.2150    0.8950 C   0  0  0  0  0  0  0  0  0  0  0  0
   -4.7250   14.9410   -1.2010 N   0  0  0  0  0  0  0  0  0  0  0  0
   -3.3910   14.9060   -1.8270 C   0  0  0  0  0  0  0  0  0  0  0  0
   -2.2710   14.5980    0.4310 C   0  0  1  0  0  0  0  0  0  0  0  0
   -2.1720   14.6850   -1.0260 N   0  0  0  0  0  0  0  0  0  0  0  0
   -1.2200   15.1650    1.2430 N   0  0  0  0  0  0  0  0  0  0  0  0
   -0.8970   14.6560   -1.5370 C   0  0  0  0  0  0  0  0  0  0  0  0
    0.0560   14.7190    0.7580 C   0  0  0  0  0  0  0  0  0  0  0  0
    0.1830   14.6700   -0.7370 C   0  0  0  0  0  0  0  0  0  0  0  0
  1  2  1  0
  2  3  1  0
  4  3  1  1
  4  5  1  0
  4  6  1  0
  6  7  1  0
  8  5  1  1
  7  9  1  0
  8  9  1  0
  8 10  1  0
  9 11  1  0
 10 12  1  0
 11 13  2  0
 12 13  1  0
M  END
