mac-x0224-mac-x0361
     RDKit          3D

 14 15  0  0  0  0  0  0  0  0999 V2000
   -5.0790   14.7570    1.1540 C   0  0  0  0  0  0  0  0  0  0  0  0
   -3.2910   14.8730    1.4420 S   0  0  0  0  0  0  0  0  0  0  0  0
   -2.9150   14.7730   -0.2570 C   0  0  0  0  0  0  0  0  0  0  0  0
   -5.3010   14.9410   -0.3340 C   0  0  0  0  0  0  0  0  0  0  0  0
   -6.4100   15.1210   -0.8350 O   0  0  0  0  0  0  0  0  0  0  0  0
   -4.0130   14.8350   -1.1090 C   0  0  0  0  0  0  0  0  0  0  0  0
   -1.6330   14.6370   -0.7350 C   0  0  0  0  0  0  0  0  0  0  0  0
   -3.8240   14.7830   -2.5030 C   0  0  0  0  0  0  0  0  0  0  0  0
   -1.3970   14.5650   -2.1040 C   0  0  0  0  0  0  0  0  0  0  0  0
   -2.4940   14.6480   -2.9920 C   0  0  0  0  0  0  0  0  0  0  0  0
   -2.2650   14.5890   -4.3480 O   0  0  0  0  0  0  0  0  0  0  0  0
    0.0400   14.3970   -2.4760 C   0  0  0  0  0  0  0  0  0  0  0  0
    0.9210   14.4320   -1.6340 O   0  0  0  0  0  0  0  0  0  0  0  0
    0.3030   14.1870   -3.7740 O   0  0  0  0  0  0  0  0  0  0  0  0
  1  2  1  0
  2  3  1  0
  1  4  1  0
  4  5  2  0
  3  6  2  0
  4  6  1  0
  3  7  1  0
  6  8  1  0
  7  9  2  0
  8 10  2  0
  9 10  1  0
 10 11  1  0
  9 12  1  0
 12 13  2  0
 12 14  1  0
M  END
