mac-x0441-diamond-x0849_0_A
     RDKit          3D

 29 32  0  0  0  0  0  0  0  0999 V2000
    0.7130   11.4040   -3.1900 O   0  0  0  0  0  0  0  0  0  0  0  0
    0.7390   12.6920   -3.6050 C   0  0  0  0  0  0  0  0  0  0  0  0
    0.8530   13.6160   -2.7110 N   0  0  0  0  0  0  0  0  0  0  0  0
    0.6350   12.9110   -5.0850 C   0  0  0  0  0  0  0  0  0  0  0  0
    0.9610   13.3980   -1.2800 C   0  0  0  0  0  0  0  0  0  0  0  0
    0.2690   11.8430   -6.0000 N   0  0  0  0  0  0  0  0  0  0  0  0
    0.9890   11.7990   -7.1420 N   0  0  0  0  0  0  0  0  0  0  0  0
   -0.6840   10.8590   -5.9540 C   0  0  0  0  0  0  0  0  0  0  0  0
   -0.1880   13.8880   -0.4380 C   0  0  0  0  0  0  0  0  0  0  0  0
    0.4840   10.7740   -7.8500 C   0  0  0  0  0  0  0  0  0  0  0  0
   -0.5580   10.1580   -7.1380 C   0  0  0  0  0  0  0  0  0  0  0  0
   -1.6820   10.5480   -4.9030 C   0  0  0  0  0  0  0  0  0  0  0  0
   -0.2320   13.9380    0.9600 C   0  0  0  0  0  0  0  0  0  0  0  0
   -1.3210   14.3190   -1.0760 C   0  0  0  0  0  0  0  0  0  0  0  0
    0.9470   10.3370   -9.2160 C   0  0  0  0  0  0  0  0  0  0  0  0
   -1.4020    8.9930   -7.5210 C   0  0  0  0  0  0  0  0  0  0  0  0
   -2.8490    9.7820   -5.5620 C   0  0  0  0  0  0  0  0  0  0  0  0
   -2.4250   14.7520   -0.3430 C   0  0  0  0  0  0  0  0  0  0  0  0
   -1.2740   14.3640    1.6920 N   0  0  0  0  0  0  0  0  0  0  0  0
    1.6610    9.1830   -9.1730 F   0  0  0  0  0  0  0  0  0  0  0  0
   -0.0870   10.1010  -10.0550 F   0  0  0  0  0  0  0  0  0  0  0  0
    1.6850   11.2490   -9.8810 F   0  0  0  0  0  0  0  0  0  0  0  0
   -2.3560    8.5800   -6.3900 C   0  0  0  0  0  0  0  0  0  0  0  0
   -2.3510   14.7530    1.0500 C   0  0  0  0  0  0  0  0  0  0  0  0
   -3.6150   15.1860   -0.9300 C   0  0  0  0  0  0  0  0  0  0  0  0
   -3.8050   15.2110   -2.8190 Br  0  0  0  0  0  0  0  0  0  0  0  0
   -3.3610   15.1350    1.7860 N   0  0  0  0  0  0  0  0  0  0  0  0
   -4.6770   15.5960   -0.1500 C   0  0  0  0  0  0  0  0  0  0  0  0
   -4.4890   15.5440    1.2090 C   0  0  0  0  0  0  0  0  0  0  0  0
  1  2  1  0
  2  3  2  3
  2  4  1  0
  3  5  1  0
  4  6  1  0
  6  7  1  0
  6  8  1  0
  5  9  1  0
  7 10  2  0
  8 11  2  0
 10 11  1  0
  8 12  1  0
  9 13  2  0
  9 14  1  0
 10 15  1  0
 11 16  1  0
 12 17  1  0
 14 18  2  0
 13 19  1  0
 15 20  1  0
 15 21  1  0
 15 22  1  0
 16 23  1  0
 17 23  1  0
 18 24  1  0
 19 24  2  0
 18 25  1  0
 25 26  1  0
 24 27  1  0
 25 28  2  0
 27 29  2  0
 28 29  1  0
M  END
