mac-x0588-diamond-x0253_0_A
     RDKit          3D

 32 35  0  0  0  0  0  0  0  0999 V2000
   -4.2720   15.4310    1.2940 N   0  0  0  0  0  0  0  0  0  0  0  0
   -3.6840   14.5240    0.3230 C   0  0  2  0  0  0  0  0  0  0  0  0
   -2.1380   14.4070    0.4030 C   0  0  1  0  0  0  0  0  0  0  0  0
   -4.2150   14.9060   -0.9590 N   0  0  0  0  0  0  0  0  0  0  0  0
   -3.2920   15.7060   -1.7150 C   0  0  0  0  0  0  0  0  0  0  0  0
   -1.4040   14.4090   -0.9530 C   0  0  1  0  0  0  0  0  0  0  0  0
   -1.4110   15.3820    1.2310 N   0  0  0  0  0  0  0  0  0  0  0  0
   -2.1670   14.9180   -2.0770 N   0  0  0  0  0  0  0  0  0  0  0  0
   -0.2360   15.2400   -0.6810 N   0  0  0  0  0  0  0  0  0  0  0  0
   -0.0760   15.1360    0.7440 C   0  0  0  0  0  0  0  0  0  0  0  0
   -1.5750   15.1070   -3.4170 C   0  0  2  0  0  0  0  0  0  0  0  0
   -1.0110   13.7840   -3.9800 C   0  0  0  0  0  0  0  0  0  0  0  0
   -0.6900   16.3790   -3.6870 C   0  0  2  0  0  0  0  0  0  0  0  0
   -0.8910   12.6390   -2.9440 C   0  0  0  0  0  0  0  0  0  0  0  0
   -1.5340   17.4330   -4.2630 O   0  0  0  0  0  0  0  0  0  0  0  0
    0.5220   16.2610   -4.6220 C   0  0  0  0  0  0  0  0  0  0  0  0
    0.5060   12.0390   -2.9310 C   0  0  0  0  0  0  0  0  0  0  0  0
    0.6220   17.6490   -5.2100 C   0  0  0  0  0  0  0  0  0  0  0  0
   -0.8310   18.0420   -5.3490 C   0  0  0  0  0  0  0  0  0  0  0  0
    1.2720   12.5570   -1.8600 O   0  0  0  0  0  0  0  0  0  0  0  0
    0.4440   10.6140   -2.7440 O   0  0  0  0  0  0  0  0  0  0  0  0
    1.1910   12.4200   -4.2610 C   0  0  0  0  0  0  0  0  0  0  0  0
    0.4660   11.8880   -5.4060 N   0  0  0  0  0  0  0  0  0  0  0  0
    1.1420   11.6800   -6.5640 C   0  0  0  0  0  0  0  0  0  0  0  0
    2.2240   12.1920   -6.7090 O   0  0  0  0  0  0  0  0  0  0  0  0
    0.5260   10.7810   -7.5940 C   0  0  0  0  0  0  0  0  0  0  0  0
   -0.4530    9.8770   -7.1600 C   0  0  0  0  0  0  0  0  0  0  0  0
    0.8790   10.7960   -8.9520 C   0  0  0  0  0  0  0  0  0  0  0  0
   -1.0700    9.0030   -8.0640 C   0  0  0  0  0  0  0  0  0  0  0  0
    0.2670    9.9280   -9.8530 C   0  0  0  0  0  0  0  0  0  0  0  0
   -2.1150    8.0420   -7.5860 C   0  0  0  0  0  0  0  0  0  0  0  0
   -0.7040    9.0370   -9.4100 C   0  0  0  0  0  0  0  0  0  0  0  0
  2  1  1  1
  2  3  1  0
  2  4  1  0
  4  5  1  0
  3  6  1  0
  3  7  1  1
  5  8  1  0
  6  8  1  0
  6  9  1  1
  7 10  1  0
  9 10  1  0
  8 11  1  0
 11 12  1  1
 11 13  1  0
 12 14  1  0
 13 15  1  0
 13 16  1  6
 14 17  1  0
 16 18  1  0
 15 19  1  0
 18 19  1  0
 17 20  1  0
 17 21  1  0
 17 22  1  0
 22 23  1  0
 23 24  1  0
 24 25  2  0
 24 26  1  0
 26 27  2  0
 26 28  1  0
 27 29  1  0
 28 30  2  0
 29 31  1  0
 29 32  2  0
 30 32  1  0
M  END
