mac-x0404-mac-x0224
     RDKit          3D

 25 28  0  0  0  0  0  0  0  0999 V2000
   -0.2060   12.3680   -2.1190 N   0  0  0  0  0  0  0  0  0  0  0  0
    0.6890   11.8130   -2.9410 C   0  0  0  0  0  0  0  0  0  0  0  0
    0.9790   10.6680   -2.8030 O   0  0  0  0  0  0  0  0  0  0  0  0
   -0.3590   13.5630   -2.5240 C   0  0  0  0  0  0  0  0  0  0  0  0
    1.1290   12.7870   -4.0560 C   0  0  0  0  0  0  0  0  0  0  0  0
    0.4430   14.0150   -3.5720 N   0  0  0  0  0  0  0  0  0  0  0  0
   -1.5300   14.2600   -1.9410 C   0  0  0  0  0  0  0  0  0  0  0  0
   -0.5140   14.6420   -4.3900 C   0  0  0  0  0  0  0  0  0  0  0  0
   -1.7400   14.3290   -0.5710 C   0  0  0  0  0  0  0  0  0  0  0  0
   -2.4740   14.8300   -2.7980 C   0  0  0  0  0  0  0  0  0  0  0  0
   -2.3690   14.8210   -4.1380 O   0  0  0  0  0  0  0  0  0  0  0  0
   -0.4020   15.9960   -4.8060 C   0  0  0  0  0  0  0  0  0  0  0  0
   -1.6400   13.8790   -4.7390 C   0  0  0  0  0  0  0  0  0  0  0  0
   -2.8940   14.9580   -0.0940 C   0  0  0  0  0  0  0  0  0  0  0  0
   -3.6090   15.4500   -2.3330 C   0  0  0  0  0  0  0  0  0  0  0  0
   -3.2180   15.0610    1.6340 S   0  0  0  0  0  0  0  0  0  0  0  0
   -1.4860   16.5490   -5.5360 C   0  0  0  0  0  0  0  0  0  0  0  0
   -2.6870   14.4330   -5.4630 C   0  0  0  0  0  0  0  0  0  0  0  0
    0.7060   16.8230   -4.5320 C   0  0  0  0  0  0  0  0  0  0  0  0
   -3.8260   15.5150   -0.9750 C   0  0  0  0  0  0  0  0  0  0  0  0
   -5.0190   14.8940    1.6350 C   0  0  0  0  0  0  0  0  0  0  0  0
   -2.6150   15.7700   -5.8470 C   0  0  0  0  0  0  0  0  0  0  0  0
   -1.4370   17.8760   -5.9580 C   0  0  0  0  0  0  0  0  0  0  0  0
    0.7420   18.1390   -4.9690 C   0  0  0  0  0  0  0  0  0  0  0  0
   -0.3330   18.6620   -5.6820 C   0  0  0  0  0  0  0  0  0  0  0  0
  1  2  1  0
  2  3  2  0
  1  4  2  0
  2  5  1  0
  4  6  1  0
  5  6  1  0
  4  7  1  0
  6  8  1  0
  7  9  2  0
  7 10  1  0
 10 11  1  0
  8 12  1  0
  8 13  2  0
  9 14  1  0
 10 15  2  0
 14 16  1  0
 12 17  2  0
 13 18  1  0
 12 19  1  0
 14 20  2  0
 15 20  1  0
 16 21  1  0
 17 22  1  0
 18 22  2  0
 17 23  1  0
 19 24  2  0
 23 25  2  0
 24 25  1  0
M  END
