mac-x0303-mac-x0385
     RDKit          3D

 22 24  0  0  0  0  0  0  0  0999 V2000
   -9.0240   13.0650    3.1020 N   0  0  0  0  0  0  0  0  0  0  0  0
   -8.8490   14.4630    2.1810 S   0  0  0  0  0  0  0  0  0  0  0  0
   -8.3400   15.5170    3.0230 O   0  0  0  0  0  0  0  0  0  0  0  0
  -10.0200   14.6080    1.3550 O   0  0  0  0  0  0  0  0  0  0  0  0
   -7.5520   14.0440    1.0840 C   0  0  0  0  0  0  0  0  0  0  0  0
   -6.8420   14.9310    0.3790 N   0  0  0  0  0  0  0  0  0  0  0  0
   -7.1340   12.8290    0.8410 N   0  0  0  0  0  0  0  0  0  0  0  0
   -5.9220   14.2740   -0.3320 C   0  0  0  0  0  0  0  0  0  0  0  0
   -6.1160   12.9880   -0.0520 C   0  0  0  0  0  0  0  0  0  0  0  0
   -4.9550   14.6710   -1.1600 C   0  0  0  0  0  0  0  0  0  0  0  0
   -5.2910   12.0580   -0.6730 C   0  0  0  0  0  0  0  0  0  0  0  0
   -4.6360   15.9710   -1.3910 C   0  0  0  0  0  0  0  0  0  0  0  0
   -4.1370   13.7750   -1.7950 C   0  0  0  0  0  0  0  0  0  0  0  0
   -4.2980   12.4620   -1.5570 C   0  0  0  0  0  0  0  0  0  0  0  0
   -3.4330   15.5410   -0.6270 C   0  0  0  0  0  0  0  0  0  0  0  0
   -3.2960   15.4960    0.7700 C   0  0  0  0  0  0  0  0  0  0  0  0
   -2.3380   15.0980   -1.3410 C   0  0  0  0  0  0  0  0  0  0  0  0
   -4.3130   15.8730    1.6630 N   0  0  0  0  0  0  0  0  0  0  0  0
   -2.1810   15.0780    1.3690 N   0  0  0  0  0  0  0  0  0  0  0  0
   -1.2090   14.6790   -0.7770 N   0  0  0  0  0  0  0  0  0  0  0  0
   -1.1970   14.6990    0.5610 C   0  0  0  0  0  0  0  0  0  0  0  0
    0.0220   14.2580    1.2140 C   0  0  0  0  0  0  0  0  0  0  0  0
  2  1  1  0
  2  3  2  0
  2  4  2  0
  2  5  1  0
  5  6  1  0
  5  7  2  0
  6  8  1  0
  7  9  1  0
  8  9  2  0
  8 10  1  0
  9 11  1  0
 10 12  1  0
 10 13  2  0
 11 14  2  0
 13 14  1  0
 12 15  1  0
 15 16  2  0
 15 17  1  0
 16 18  1  0
 16 19  1  0
 17 20  2  0
 19 21  2  0
 20 21  1  0
 21 22  1  0
M  END
