mac-x0206-mac-x0277
     RDKit          3D

 24 25  0  0  0  0  0  0  0  0999 V2000
   -3.0340   15.1550   -0.2720 N   0  0  0  0  0  0  0  0  0  0  0  0
   -4.2270   14.8370   -0.8680 C   0  0  0  0  0  0  0  0  0  0  0  0
   -4.3780   14.5350   -2.1140 N   0  0  0  0  0  0  0  0  0  0  0  0
   -5.4770   14.8080   -0.0140 C   0  0  0  0  0  0  0  0  0  0  0  0
   -3.2410   14.5030   -3.0390 C   0  0  0  0  0  0  0  0  0  0  0  0
   -6.7640   14.7170   -0.5720 C   0  0  0  0  0  0  0  0  0  0  0  0
   -5.3580   14.8650    1.3850 C   0  0  0  0  0  0  0  0  0  0  0  0
   -6.9340   14.6610   -1.9320 O   0  0  0  0  0  0  0  0  0  0  0  0
   -3.6280   15.4300   -4.1820 C   0  0  0  0  0  0  0  0  0  0  0  0
   -7.9010   14.6800    0.2430 C   0  0  0  0  0  0  0  0  0  0  0  0
   -6.4990   14.8280    2.1980 C   0  0  0  0  0  0  0  0  0  0  0  0
   -2.7130   15.4510   -5.4010 C   0  0  0  0  0  0  0  0  0  0  0  0
   -7.7650   14.7340    1.6300 C   0  0  0  0  0  0  0  0  0  0  0  0
   -1.2560   15.5550   -5.0440 C   0  0  0  0  0  0  0  0  0  0  0  0
   -0.5670   14.3620   -4.7810 C   0  0  0  0  0  0  0  0  0  0  0  0
   -0.5550   16.7670   -4.9570 C   0  0  0  0  0  0  0  0  0  0  0  0
   -1.3020   18.2970   -5.2640 Cl  0  0  0  0  0  0  0  0  0  0  0  0
    0.7840   14.3550   -4.4370 C   0  0  0  0  0  0  0  0  0  0  0  0
    0.7970   16.7700   -4.6130 C   0  0  0  0  0  0  0  0  0  0  0  0
    1.4830   13.0490   -4.1540 C   0  0  0  0  0  0  0  0  0  0  0  0
    1.4640   15.5680   -4.3520 C   0  0  0  0  0  0  0  0  0  0  0  0
    0.9460   12.3920   -2.9100 C   0  0  0  0  0  0  0  0  0  0  0  0
    0.2800   11.2470   -3.1780 O   0  0  0  0  0  0  0  0  0  0  0  0
    1.0490   12.7760   -1.7570 O   0  0  0  0  0  0  0  0  0  0  0  0
  1  2  1  0
  2  3  2  3
  2  4  1  0
  3  5  1  0
  4  6  2  0
  4  7  1  0
  6  8  1  0
  5  9  1  0
  6 10  1  0
  7 11  2  0
  9 12  1  0
 10 13  2  0
 11 13  1  0
 12 14  1  0
 14 15  2  0
 14 16  1  0
 16 17  1  0
 15 18  1  0
 16 19  2  0
 18 20  1  0
 18 21  2  0
 19 21  1  0
 20 22  1  0
 22 23  1  0
 22 24  2  0
M  END
