mac-x0115-mac-x0132
     RDKit          3D

 26 29  0  0  0  0  0  0  0  0999 V2000
   -1.4400   18.5960   -5.1580 C   0  0  0  0  0  0  0  0  0  0  0  0
   -0.4220   17.6290   -5.7320 C   0  0  0  0  0  0  0  0  0  0  0  0
    0.9950   18.1370   -5.5450 C   0  0  0  0  0  0  0  0  0  0  0  0
   -0.5270   16.3590   -5.0810 O   0  0  0  0  0  0  0  0  0  0  0  0
    0.7100   15.8150   -4.6110 C   0  0  0  0  0  0  0  0  0  0  0  0
    0.4420   14.5210   -3.8270 C   0  0  0  0  0  0  0  0  0  0  0  0
    0.0320   14.7600   -2.4170 N   0  0  0  0  0  0  0  0  0  0  0  0
    0.8890   14.4710   -1.3790 C   0  0  0  0  0  0  0  0  0  0  0  0
   -1.3240   14.7910   -2.1380 C   0  0  0  0  0  0  0  0  0  0  0  0
    2.5200   14.1180   -1.5800 S   0  0  0  0  0  0  0  0  0  0  0  0
    0.3400   14.4820   -0.0960 N   0  0  0  0  0  0  0  0  0  0  0  0
   -1.9050   14.7460   -0.8660 C   0  0  0  0  0  0  0  0  0  0  0  0
   -2.3060   14.8730   -3.0930 C   0  0  0  0  0  0  0  0  0  0  0  0
   -1.0050   14.6640    0.2900 C   0  0  0  0  0  0  0  0  0  0  0  0
   -3.3380   14.7950   -1.0750 N   0  0  0  0  0  0  0  0  0  0  0  0
   -3.4950   14.8750   -2.4730 C   0  0  0  0  0  0  0  0  0  0  0  0
   -1.3180   14.7430    1.4920 O   0  0  0  0  0  0  0  0  0  0  0  0
   -4.5660   14.7720   -0.2820 C   0  0  0  0  0  0  0  0  0  0  0  0
   -4.7380   14.9390   -3.1040 C   0  0  0  0  0  0  0  0  0  0  0  0
   -4.7410   14.6970    1.0810 C   0  0  0  0  0  0  0  0  0  0  0  0
   -5.7940   14.8190   -0.9770 C   0  0  0  0  0  0  0  0  0  0  0  0
   -5.8440   14.9140   -2.4110 C   0  0  0  0  0  0  0  0  0  0  0  0
   -3.7100   14.6450    1.9920 N   0  0  0  0  0  0  0  0  0  0  0  0
   -7.0240   14.7800   -0.4360 N   0  0  0  0  0  0  0  0  0  0  0  0
   -5.9690   14.6580    1.6570 N   0  0  0  0  0  0  0  0  0  0  0  0
   -7.0510   14.6940    0.8790 C   0  0  0  0  0  0  0  0  0  0  0  0
  1  2  1  0
  2  3  1  0
  2  4  1  0
  4  5  1  0
  5  6  1  0
  6  7  1  0
  7  8  1  0
  7  9  1  0
  8 10  2  0
  8 11  1  0
  9 12  2  0
  9 13  1  0
 11 14  1  0
 12 14  1  0
 12 15  1  0
 13 16  2  0
 15 16  1  0
 14 17  2  0
 15 18  1  0
 16 19  1  0
 18 20  2  0
 18 21  1  0
 19 22  2  0
 21 22  1  0
 20 23  1  0
 21 24  2  0
 20 25  1  0
 24 26  1  0
 25 26  2  0
M  END
