mac-x0124-diamond-x0471_0_A
     RDKit          3D

 26 29  0  0  0  0  0  0  0  0999 V2000
    0.8990   14.7090   -2.7680 C   0  0  0  0  0  0  0  0  0  0  0  0
   -0.4220   14.7380   -2.2040 N   0  0  0  0  0  0  0  0  0  0  0  0
   -1.5710   14.8220   -2.9420 C   0  0  0  0  0  0  0  0  0  0  0  0
   -0.7240   14.6900   -0.8500 C   0  0  0  0  0  0  0  0  0  0  0  0
   -2.6030   14.8340   -2.0600 C   0  0  0  0  0  0  0  0  0  0  0  0
   -2.0670   14.7570   -0.7360 C   0  0  0  0  0  0  0  0  0  0  0  0
    0.1050   14.5990    0.1860 N   0  0  0  0  0  0  0  0  0  0  0  0
   -2.6640   14.7480    0.5050 C   0  0  0  0  0  0  0  0  0  0  0  0
   -0.5570   14.5780    1.3790 C   0  0  0  0  0  0  0  0  0  0  0  0
   -1.9080   14.6500    1.6460 N   0  0  0  0  0  0  0  0  0  0  0  0
   -4.0350   14.8720    0.0960 C   0  0  0  0  0  0  0  0  0  0  0  0
   -5.4230   14.7010    0.4290 C   0  0  0  0  0  0  0  0  0  0  0  0
   -3.7680   15.3490   -1.1730 C   0  0  0  0  0  0  0  0  0  0  0  0
   -6.1950   14.2760    1.5010 N   0  0  0  0  0  0  0  0  0  0  0  0
   -6.3180   15.0450   -0.6170 C   0  0  0  0  0  0  0  0  0  0  0  0
   -4.6690   15.6550   -2.1190 C   0  0  0  0  0  0  0  0  0  0  0  0
   -7.5560   14.8230   -0.1610 N   0  0  0  0  0  0  0  0  0  0  0  0
   -7.4710   14.3660    1.0920 C   0  0  0  0  0  0  0  0  0  0  0  0
   -5.9840   15.5110   -1.8610 C   0  0  0  0  0  0  0  0  0  0  0  0
   -8.7270   14.0410    1.8000 C   0  0  0  0  0  0  0  0  0  0  0  0
   -8.4250   13.9460    3.1800 N   0  0  0  0  0  0  0  0  0  0  0  0
   -8.8550   14.9080    4.0320 C   0  0  0  0  0  0  0  0  0  0  0  0
   -9.3060   15.9920    3.6560 O   0  0  0  0  0  0  0  0  0  0  0  0
   -8.7440   14.5130    5.4880 C   0  0  0  0  0  0  0  0  0  0  0  0
   -9.9930   13.7530    5.9300 C   0  0  0  0  0  0  0  0  0  0  0  0
   -8.4560   15.7220    6.3660 C   0  0  0  0  0  0  0  0  0  0  0  0
  1  2  1  0
  2  3  1  0
  2  4  1  0
  3  5  2  0
  4  6  2  0
  5  6  1  0
  4  7  1  0
  6  8  1  0
  7  9  2  0
  8 10  2  0
  9 10  1  0
  8 11  1  0
 11 12  1  0
 11 13  2  0
 12 14  1  0
 12 15  2  0
 13 16  1  0
 15 17  1  0
 14 18  2  0
 17 18  1  0
 15 19  1  0
 16 19  2  0
 18 20  1  0
 20 21  1  0
 21 22  1  0
 22 23  2  0
 22 24  1  0
 24 25  1  0
 24 26  1  0
M  END
