mac-x0358-mac-x0224
     RDKit          3D

 21 22  0  0  0  0  0  0  0  0999 V2000
    0.5910   13.3260   -2.2030 N   0  0  0  0  0  0  0  0  0  0  0  0
    0.9450   12.3560   -3.0730 C   0  0  0  0  0  0  0  0  0  0  0  0
    1.0290   11.1920   -2.7440 O   0  0  0  0  0  0  0  0  0  0  0  0
   -0.6550   13.4310   -2.4060 C   0  0  0  0  0  0  0  0  0  0  0  0
    1.0690   12.8700   -4.5020 C   0  0  0  0  0  0  0  0  0  0  0  0
   -1.7820   14.1920   -1.9220 C   0  0  0  0  0  0  0  0  0  0  0  0
   -0.2770   13.4080   -4.9540 C   0  0  0  0  0  0  0  0  0  0  0  0
   -2.0520   14.3720   -0.5860 C   0  0  0  0  0  0  0  0  0  0  0  0
   -2.6140   14.7180   -2.8880 C   0  0  0  0  0  0  0  0  0  0  0  0
   -2.3800   14.5610   -4.2010 O   0  0  0  0  0  0  0  0  0  0  0  0
   -1.3060   12.5450   -5.3800 C   0  0  0  0  0  0  0  0  0  0  0  0
   -0.5340   14.7920   -4.9460 C   0  0  0  0  0  0  0  0  0  0  0  0
   -3.1880   15.0880   -0.2400 C   0  0  0  0  0  0  0  0  0  0  0  0
   -3.7370   15.4260   -2.5530 C   0  0  0  0  0  0  0  0  0  0  0  0
   -1.0740   11.1960   -5.3860 O   0  0  0  0  0  0  0  0  0  0  0  0
   -3.5710   15.3270    1.4560 S   0  0  0  0  0  0  0  0  0  0  0  0
   -2.5520   13.0360   -5.7900 C   0  0  0  0  0  0  0  0  0  0  0  0
   -1.7840   15.2920   -5.3490 C   0  0  0  0  0  0  0  0  0  0  0  0
   -4.0320   15.6150   -1.2170 C   0  0  0  0  0  0  0  0  0  0  0  0
   -5.3120   14.8540    1.3540 C   0  0  0  0  0  0  0  0  0  0  0  0
   -2.7910   14.4140   -5.7740 C   0  0  0  0  0  0  0  0  0  0  0  0
  1  2  1  0
  2  3  2  0
  1  4  2  3
  2  5  1  0
  4  6  1  0
  5  7  1  0
  6  8  2  0
  6  9  1  0
  9 10  1  0
  7 11  2  0
  7 12  1  0
  8 13  1  0
  9 14  2  0
 11 15  1  0
 13 16  1  0
 11 17  1  0
 12 18  2  0
 13 19  2  0
 14 19  1  0
 16 20  1  0
 17 21  2  0
 18 21  1  0
M  END
