mac-x0527-mac-x0587
     RDKit          3D

 23 24  0  0  0  0  0  0  0  0999 V2000
   -3.7120   15.2880   -3.7600 O   0  0  0  0  0  0  0  0  0  0  0  0
   -3.0350   15.0450   -2.7710 C   0  0  0  0  0  0  0  0  0  0  0  0
   -1.6810   14.7680   -2.7770 N   0  0  0  0  0  0  0  0  0  0  0  0
   -3.6950   15.0420   -1.4480 C   0  0  0  0  0  0  0  0  0  0  0  0
   -0.7910   14.5530   -3.9350 C   0  0  1  0  0  0  0  0  0  0  0  0
   -5.0710   15.1640   -1.3180 C   0  0  0  0  0  0  0  0  0  0  0  0
   -2.9360   14.9120   -0.3020 N   0  0  0  0  0  0  0  0  0  0  0  0
   -0.6760   15.8100   -4.8230 C   0  0  0  0  0  0  0  0  0  0  0  0
    0.9020   14.1680   -3.3460 S   0  0  0  0  0  0  0  0  0  0  0  0
   -1.6490   14.7960   -0.3420 O   0  0  0  0  0  0  0  0  0  0  0  0
   -1.0800   13.2780   -4.7440 C   0  0  0  0  0  0  0  0  0  0  0  0
   -5.7090   15.1570   -0.1230 N   0  0  0  0  0  0  0  0  0  0  0  0
   -3.5790   14.9060    0.9290 C   0  0  0  0  0  0  0  0  0  0  0  0
    0.9380   12.3870   -3.7330 C   0  0  0  0  0  0  0  0  0  0  0  0
   -2.1200   12.3690   -4.4890 C   0  0  0  0  0  0  0  0  0  0  0  0
   -0.2010   12.9850   -5.8160 C   0  0  0  0  0  0  0  0  0  0  0  0
   -4.9500   15.0280    0.9810 C   0  0  0  0  0  0  0  0  0  0  0  0
    0.6920   11.5150   -2.5340 C   0  0  0  0  0  0  0  0  0  0  0  0
   -2.2680   11.2150   -5.2680 C   0  0  0  0  0  0  0  0  0  0  0  0
   -0.3490   11.8400   -6.5890 C   0  0  0  0  0  0  0  0  0  0  0  0
    0.4930   10.3130   -2.4790 O   0  0  0  0  0  0  0  0  0  0  0  0
    0.7070   12.2380   -1.3940 O   0  0  0  0  0  0  0  0  0  0  0  0
   -1.3810   10.9520   -6.3150 C   0  0  0  0  0  0  0  0  0  0  0  0
  1  2  2  0
  2  3  1  0
  2  4  1  0
  3  5  1  0
  4  6  2  0
  4  7  1  0
  5  8  1  6
  5  9  1  0
  7 10  1  0
  5 11  1  0
  6 12  1  0
  7 13  2  0
  9 14  1  0
 11 15  2  0
 11 16  1  0
 12 17  2  0
 13 17  1  0
 14 18  1  0
 15 19  1  0
 16 20  2  0
 18 21  2  0
 18 22  1  0
 19 23  2  0
 20 23  1  0
M  CHG  2   7   1  10  -1
M  END
