mac-x0341-mac-x0567
     RDKit          3D

 16 18  0  0  0  0  0  0  0  0999 V2000
   -7.3650   14.5770    2.0490 N   0  0  0  0  0  0  0  0  0  0  0  0
   -6.4990   14.7290    1.0110 C   0  0  0  0  0  0  0  0  0  0  0  0
   -5.1820   14.6920    1.3140 N   0  0  0  0  0  0  0  0  0  0  0  0
   -6.9710   14.9000   -0.1780 N   0  0  0  0  0  0  0  0  0  0  0  0
   -6.1670   15.0680   -1.2750 C   0  0  0  0  0  0  0  0  0  0  0  0
   -4.3430   14.7840    0.3540 C   0  0  0  0  0  0  0  0  0  0  0  0
   -6.5960   15.2900   -2.3940 O   0  0  0  0  0  0  0  0  0  0  0  0
   -4.7230   14.9400   -1.0420 C   0  0  0  0  0  0  0  0  0  0  0  0
   -2.9120   14.7040    0.6340 C   0  0  0  0  0  0  0  0  0  0  0  0
   -1.9650   14.6690   -0.4480 C   0  0  0  0  0  0  0  0  0  0  0  0
   -3.7900   14.9450   -2.0110 C   0  0  0  0  0  0  0  0  0  0  0  0
   -2.3610   14.6380    1.7930 N   0  0  0  0  0  0  0  0  0  0  0  0
   -2.3700   14.7910   -1.7200 C   0  0  0  0  0  0  0  0  0  0  0  0
   -0.7080   14.4940    0.2780 C   0  0  0  0  0  0  0  0  0  0  0  0
   -0.9340   14.5010    1.5710 N   0  0  0  0  0  0  0  0  0  0  0  0
    0.5150   14.3360   -0.2790 N   0  0  0  0  0  0  0  0  0  0  0  0
  1  2  1  0
  2  3  1  0
  2  4  2  0
  4  5  1  0
  3  6  2  0
  5  7  2  0
  5  8  1  0
  6  8  1  0
  6  9  1  0
  9 10  1  0
  8 11  2  0
  9 12  2  0
 10 13  2  0
 11 13  1  0
 10 14  1  0
 12 15  1  0
 14 15  2  0
 14 16  1  0
M  END
