mac-x0188-mac-x0302
     RDKit          3D

 19 20  0  0  0  0  0  0  0  0999 V2000
    1.3410   12.8350   -4.9350 C   0  0  0  0  0  0  0  0  0  0  0  0
    0.0230   13.1940   -4.3600 C   0  0  0  0  0  0  0  0  0  0  0  0
   -1.0350   13.0820   -5.2030 O   0  0  0  0  0  0  0  0  0  0  0  0
   -0.4140   13.6440   -3.1240 C   0  0  0  0  0  0  0  0  0  0  0  0
    0.4160   13.9040   -1.9840 C   0  0  0  0  0  0  0  0  0  0  0  0
   -2.1830   13.4590   -4.5430 N   0  0  0  0  0  0  0  0  0  0  0  0
   -1.8250   13.8020   -3.2950 C   0  0  0  0  0  0  0  0  0  0  0  0
    0.9260   15.0530   -2.0140 N   0  0  0  0  0  0  0  0  0  0  0  0
    0.6170   13.0040   -0.9800 O   0  0  0  0  0  0  0  0  0  0  0  0
   -2.8660   14.2570   -2.3680 C   0  0  0  0  0  0  0  0  0  0  0  0
    0.4530   15.6890   -3.2360 C   0  0  0  0  0  0  0  0  0  0  0  0
   -4.0010   14.9240   -2.8260 C   0  0  0  0  0  0  0  0  0  0  0  0
   -2.7360   14.0140   -0.9900 C   0  0  0  0  0  0  0  0  0  0  0  0
   -0.9620   15.4020   -3.3260 N   0  0  0  0  0  0  0  0  0  0  0  0
   -5.0080   15.3220   -1.9520 C   0  0  0  0  0  0  0  0  0  0  0  0
   -3.7430   14.4160   -0.1030 C   0  0  0  0  0  0  0  0  0  0  0  0
   -4.1290   15.1830   -4.1610 O   0  0  0  0  0  0  0  0  0  0  0  0
   -4.8710   15.0550   -0.6040 C   0  0  0  0  0  0  0  0  0  0  0  0
   -5.8980   15.4370    0.1960 O   0  0  0  0  0  0  0  0  0  0  0  0
  1  2  1  0
  2  3  1  0
  2  4  2  0
  4  5  1  0
  3  6  1  0
  4  7  1  0
  6  7  2  0
  5  8  2  3
  5  9  1  0
  7 10  1  0
  8 11  1  0
 10 12  2  0
 10 13  1  0
 11 14  1  0
 12 15  1  0
 13 16  2  0
 12 17  1  0
 15 18  2  0
 16 18  1  0
 18 19  1  0
M  END
