mac-x0226-mac-x0326
     RDKit          3D

 26 29  0  0  0  0  0  0  0  0999 V2000
    1.6530   13.3620   -3.4670 O   0  0  0  0  0  0  0  0  0  0  0  0
    0.9610   12.2310   -3.4700 C   0  0  0  0  0  0  0  0  0  0  0  0
    0.7710   11.9770   -2.3290 N   0  0  0  0  0  0  0  0  0  0  0  0
    0.7860   11.8500   -4.7640 C   0  0  0  0  0  0  0  0  0  0  0  0
    1.4230   13.1650   -1.8440 C   0  0  0  0  0  0  0  0  0  0  0  0
    1.6430   12.4400   -5.6830 C   0  0  0  0  0  0  0  0  0  0  0  0
   -0.0150   11.0190   -5.4810 C   0  0  0  0  0  0  0  0  0  0  0  0
    0.9850   14.3400   -2.7570 C   0  0  0  0  0  0  0  0  0  0  0  0
    1.4400   12.0380   -6.8890 N   0  0  0  0  0  0  0  0  0  0  0  0
    0.4270   11.1650   -6.7770 N   0  0  0  0  0  0  0  0  0  0  0  0
    0.0040   10.5660   -7.9510 C   0  0  0  0  0  0  0  0  0  0  0  0
   -0.3890   14.5800   -2.3190 C   0  0  0  0  0  0  0  0  0  0  0  0
   -1.1270    9.7590   -7.9670 C   0  0  0  0  0  0  0  0  0  0  0  0
    0.7350   10.7910   -9.1170 C   0  0  0  0  0  0  0  0  0  0  0  0
   -1.4790   14.7130   -3.0490 N   0  0  0  0  0  0  0  0  0  0  0  0
   -0.5360   14.6600   -0.6290 S   0  0  0  0  0  0  0  0  0  0  0  0
   -1.5220    9.1750   -9.1660 C   0  0  0  0  0  0  0  0  0  0  0  0
    0.3420   10.2090  -10.3040 C   0  0  0  0  0  0  0  0  0  0  0  0
   -2.5450   14.8870   -2.1790 C   0  0  0  0  0  0  0  0  0  0  0  0
   -2.2060   14.8800   -0.8190 C   0  0  0  0  0  0  0  0  0  0  0  0
   -0.7870    9.4010  -10.3300 C   0  0  0  0  0  0  0  0  0  0  0  0
   -3.8950   15.0620   -2.5230 C   0  0  0  0  0  0  0  0  0  0  0  0
   -3.1360   15.0400    0.2010 C   0  0  0  0  0  0  0  0  0  0  0  0
   -4.8280   15.2200   -1.4930 C   0  0  0  0  0  0  0  0  0  0  0  0
   -4.4560   15.2110   -0.1600 C   0  0  0  0  0  0  0  0  0  0  0  0
   -6.4900   15.4300   -1.8550 Cl  0  0  0  0  0  0  0  0  0  0  0  0
  1  2  1  0
  2  3  2  3
  2  4  1  0
  3  5  1  0
  4  6  1  0
  4  7  2  0
  5  8  1  0
  6  9  2  0
  7 10  1  0
  9 10  1  0
 10 11  1  0
  8 12  1  0
 11 13  2  0
 11 14  1  0
 12 15  2  0
 12 16  1  0
 13 17  1  0
 14 18  2  0
 15 19  1  0
 16 20  1  0
 19 20  2  0
 17 21  2  0
 18 21  1  0
 19 22  1  0
 20 23  1  0
 22 24  2  0
 23 25  2  0
 24 25  1  0
 24 26  1  0
M  END
