mac-x0345-mac-x0142
     RDKit          3D

 24 28  0  0  0  0  0  0  0  0999 V2000
   -8.1350   14.8350   -0.2640 C   0  0  0  0  0  0  0  0  0  0  0  0
   -6.6410   14.9110   -0.4130 C   0  0  0  0  0  0  0  0  0  0  0  0
   -6.1460   15.1070   -1.6900 N   0  0  0  0  0  0  0  0  0  0  0  0
   -5.8240   14.7900    0.6160 C   0  0  0  0  0  0  0  0  0  0  0  0
   -6.2880   14.4940    2.3760 Br  0  0  0  0  0  0  0  0  0  0  0  0
   -4.4000   14.8810    0.3450 C   0  0  0  0  0  0  0  0  0  0  0  0
   -4.8050   15.0680   -2.0420 C   0  0  0  0  0  0  0  0  0  0  0  0
   -4.5340   15.1490   -3.3780 N   0  0  0  0  0  0  0  0  0  0  0  0
   -3.8730   14.9570   -1.0450 C   0  0  0  0  0  0  0  0  0  0  0  0
   -3.5130   14.8830    1.2570 N   0  0  0  0  0  0  0  0  0  0  0  0
   -2.3130   14.8710    0.5830 C   0  0  0  0  0  0  0  0  0  0  0  0
   -2.4090   14.8880   -0.8210 C   0  0  0  0  0  0  0  0  0  0  0  0
   -1.2310   14.8320    1.3290 N   0  0  0  0  0  0  0  0  0  0  0  0
   -1.1770   14.8470   -1.4930 C   0  0  0  0  0  0  0  0  0  0  0  0
   -1.0410   14.8600   -2.9110 N   0  0  0  0  0  0  0  0  0  0  0  0
   -0.0470   14.8110   -0.7520 N   0  0  0  0  0  0  0  0  0  0  0  0
   -0.1410   14.8170    0.5980 C   0  0  0  0  0  0  0  0  0  0  0  0
   -2.0700   14.1220   -3.6770 C   0  0  0  0  0  0  0  0  0  0  0  0
    0.3350   14.9390   -3.4580 C   0  0  0  0  0  0  0  0  0  0  0  0
    0.7660   13.6820   -4.1820 C   0  0  0  0  0  0  0  0  0  0  0  0
   -1.5610   12.8920   -4.4370 C   0  0  0  0  0  0  0  0  0  0  0  0
    2.2260   13.3930   -4.4550 C   0  0  0  0  0  0  0  0  0  0  0  0
    1.5220   12.6550   -3.3570 C   0  0  0  0  0  0  0  0  0  0  0  0
   -0.2530   13.1720   -5.1600 C   0  0  0  0  0  0  0  0  0  0  0  0
  1  2  1  0
  2  3  1  0
  2  4  2  0
  4  5  1  0
  4  6  1  0
  3  7  1  0
  7  8  1  0
  6  9  1  0
  7  9  2  0
  6 10  2  0
 10 11  1  0
  9 12  1  0
 11 12  2  0
 11 13  1  0
 12 14  1  0
 14 15  1  0
 14 16  2  0
 13 17  2  0
 16 17  1  0
 15 18  1  0
 15 19  1  0
 20 19  1  0
 18 21  1  0
 20 22  1  0
 20 23  1  0
 22 23  1  0
 20 24  1  0
 21 24  1  0
M  END
