mac-x0441-diamond-x0676_0_B
     RDKit          3D

 31 34  0  0  0  0  0  0  0  0999 V2000
    0.4760   10.8650   -3.2580 O   0  0  0  0  0  0  0  0  0  0  0  0
    0.7570   12.1760   -3.4170 C   0  0  0  0  0  0  0  0  0  0  0  0
    1.2260   12.8340   -2.4970 O   0  0  0  0  0  0  0  0  0  0  0  0
    0.4670   12.7860   -4.7690 C   0  0  0  0  0  0  0  0  0  0  0  0
    0.1610   11.8270   -5.8160 N   0  0  0  0  0  0  0  0  0  0  0  0
    0.9340   11.8240   -6.9380 N   0  0  0  0  0  0  0  0  0  0  0  0
   -0.8280   10.8830   -5.8640 C   0  0  0  0  0  0  0  0  0  0  0  0
    0.3960   10.8420   -7.7010 C   0  0  0  0  0  0  0  0  0  0  0  0
   -0.6920   10.2400   -7.0610 C   0  0  0  0  0  0  0  0  0  0  0  0
   -1.8750   10.5670   -4.8540 C   0  0  0  0  0  0  0  0  0  0  0  0
    0.8390   10.3850   -9.0570 C   0  0  0  0  0  0  0  0  0  0  0  0
   -1.5620    9.1270   -7.5320 C   0  0  0  0  0  0  0  0  0  0  0  0
   -3.0150    9.7900   -5.5490 C   0  0  0  0  0  0  0  0  0  0  0  0
    1.3950    9.0840   -8.9170 O   0  0  0  0  0  0  0  0  0  0  0  0
   -0.2340   10.3000   -9.8810 F   0  0  0  0  0  0  0  0  0  0  0  0
    1.6700   11.2060   -9.7190 F   0  0  0  0  0  0  0  0  0  0  0  0
   -2.4820    8.6270   -6.4050 C   0  0  0  0  0  0  0  0  0  0  0  0
    0.9080    8.2170   -9.9180 C   0  0  0  0  0  0  0  0  0  0  0  0
    1.6750    8.4060  -11.1090 N   0  0  0  0  0  0  0  0  0  0  0  0
    2.8640    7.9760  -11.0270 C   0  0  0  0  0  0  0  0  0  0  0  0
    3.4160    7.2670   -9.8160 C   0  0  0  0  0  0  0  0  0  0  0  0
    3.8940    8.0540  -11.9390 N   0  0  0  0  0  0  0  0  0  0  0  0
    5.1150    7.6360  -11.3920 N   0  0  0  0  0  0  0  0  0  0  0  0
    4.8580    7.2030  -10.1920 C   0  0  0  0  0  0  0  0  0  0  0  0
    3.9630    9.1360  -12.8670 C   0  0  0  0  0  0  0  0  0  0  0  0
    5.8810    6.6840   -9.2410 C   0  0  0  0  0  0  0  0  0  0  0  0
    3.0460   10.2090  -12.8450 C   0  0  0  0  0  0  0  0  0  0  0  0
    4.9580    9.1840  -13.8510 C   0  0  0  0  0  0  0  0  0  0  0  0
    3.1220   11.2720  -13.7550 C   0  0  0  0  0  0  0  0  0  0  0  0
    5.0390   10.2410  -14.7660 C   0  0  0  0  0  0  0  0  0  0  0  0
    4.1200   11.2870  -14.7180 C   0  0  0  0  0  0  0  0  0  0  0  0
  1  2  1  0
  2  3  2  0
  2  4  1  0
  4  5  1  0
  5  6  1  0
  5  7  1  0
  6  8  2  0
  7  9  2  0
  8  9  1  0
  7 10  1  0
  8 11  1  0
  9 12  1  0
 10 13  1  0
 11 14  1  0
 11 15  1  0
 11 16  1  0
 12 17  1  0
 13 17  1  0
 14 18  1  0
 18 19  1  0
 19 20  2  3
 20 21  1  0
 20 22  1  0
 22 23  1  0
 21 24  1  0
 23 24  2  0
 22 25  1  0
 24 26  1  0
 25 27  2  0
 25 28  1  0
 27 29  1  0
 28 30  2  0
 29 31  2  0
 30 31  1  0
M  END
