mac-x0303-mac-x0142
     RDKit          3D

 26 30  0  0  0  0  0  0  0  0999 V2000
   -8.5030   12.9410    2.6460 N   0  0  0  0  0  0  0  0  0  0  0  0
   -8.5130   14.4770    1.9560 S   0  0  0  0  0  0  0  0  0  0  0  0
   -8.3160   15.4550    2.9970 O   0  0  0  0  0  0  0  0  0  0  0  0
   -9.6260   14.5460    1.0410 O   0  0  0  0  0  0  0  0  0  0  0  0
   -7.0510   14.5430    0.9570 C   0  0  0  0  0  0  0  0  0  0  0  0
   -6.9720   15.1490   -0.2790 N   0  0  0  0  0  0  0  0  0  0  0  0
   -5.8850   14.0220    1.3070 N   0  0  0  0  0  0  0  0  0  0  0  0
   -5.6820   14.9960   -0.6970 C   0  0  0  0  0  0  0  0  0  0  0  0
   -5.0360   14.2980    0.2800 C   0  0  0  0  0  0  0  0  0  0  0  0
   -5.1320   15.4670   -1.8800 C   0  0  0  0  0  0  0  0  0  0  0  0
   -3.5930   13.9240    0.1750 C   0  0  0  0  0  0  0  0  0  0  0  0
   -3.7760   15.4300   -1.9400 C   0  0  0  0  0  0  0  0  0  0  0  0
   -2.8220   14.8710   -0.8110 C   0  0  1  0  0  0  0  0  0  0  0  0
   -2.3190   15.9370    0.1770 C   0  0  0  0  0  0  0  0  0  0  0  0
   -1.4410   14.3910   -1.4730 C   0  0  1  0  0  0  0  0  0  0  0  0
   -1.1530   14.5590   -2.9030 N   0  0  0  0  0  0  0  0  0  0  0  0
   -0.2720   14.9730   -0.7960 N   0  0  0  0  0  0  0  0  0  0  0  0
   -1.5130   15.3010    1.2170 N   0  0  0  0  0  0  0  0  0  0  0  0
   -2.0450   13.8080   -3.7840 C   0  0  0  0  0  0  0  0  0  0  0  0
    0.1820   14.8570   -3.4290 C   0  0  0  0  0  0  0  0  0  0  0  0
   -0.2810   14.7950    0.6450 C   0  0  0  0  0  0  0  0  0  0  0  0
    0.7500   13.6000   -4.0880 C   0  0  0  0  0  0  0  0  0  0  0  0
   -1.4960   13.5860   -5.1920 C   0  0  0  0  0  0  0  0  0  0  0  0
    2.2450   13.4970   -4.3150 C   0  0  0  0  0  0  0  0  0  0  0  0
    1.6100   12.7090   -3.2100 C   0  0  0  0  0  0  0  0  0  0  0  0
   -0.1110   12.9620   -5.1640 C   0  0  0  0  0  0  0  0  0  0  0  0
  2  1  1  0
  2  3  2  0
  2  4  2  0
  2  5  1  0
  5  6  1  0
  5  7  2  0
  6  8  1  0
  7  9  1  0
  8  9  2  0
  8 10  1  0
  9 11  1  0
 10 12  2  0
 13 11  1  1
 13 12  1  0
 13 14  1  0
 13 15  1  0
 15 16  1  6
 15 17  1  0
 14 18  1  0
 16 19  1  0
 16 20  1  0
 17 21  1  0
 18 21  1  0
 22 20  1  0
 19 23  1  0
 22 24  1  0
 22 25  1  0
 24 25  1  0
 22 26  1  0
 23 26  1  0
M  END
