mac-x0387-mac-x0321
     RDKit          3D

 20 22  0  0  0  0  0  0  0  0999 V2000
   -3.8750   15.0970    1.0460 N   0  0  0  0  0  0  0  0  0  0  0  0
   -2.4790   14.9980    0.9170 C   0  0  0  0  0  0  0  0  0  0  0  0
   -1.6250   14.5970    1.8750 N   0  0  0  0  0  0  0  0  0  0  0  0
   -4.4070   14.9730   -0.2440 C   0  0  0  0  0  0  0  0  0  0  0  0
   -2.0620   15.3480   -0.3930 C   0  0  0  0  0  0  0  0  0  0  0  0
   -3.5030   14.4970   -1.1930 C   0  0  0  0  0  0  0  0  0  0  0  0
   -5.7050   15.2780   -0.6670 C   0  0  0  0  0  0  0  0  0  0  0  0
   -0.7100   15.2620   -0.7070 C   0  0  0  0  0  0  0  0  0  0  0  0
   -0.3230   14.5320    1.5250 C   0  0  0  0  0  0  0  0  0  0  0  0
   -2.9360   15.7770   -1.4190 C   0  0  0  0  0  0  0  0  0  0  0  0
   -3.8290   14.3350   -2.5270 C   0  0  0  0  0  0  0  0  0  0  0  0
   -6.0590   15.1180   -2.0160 C   0  0  0  0  0  0  0  0  0  0  0  0
   -2.7960   13.8420   -3.4790 C   0  0  0  0  0  0  0  0  0  0  0  0
    0.1620   14.8510    0.2700 C   0  0  0  0  0  0  0  0  0  0  0  0
   -0.2520   15.5810   -1.9920 C   0  0  0  0  0  0  0  0  0  0  0  0
   -2.4750   16.0880   -2.6980 C   0  0  0  0  0  0  0  0  0  0  0  0
   -5.1220   14.6510   -2.9490 C   0  0  0  0  0  0  0  0  0  0  0  0
   -1.5970   13.6500   -2.8920 O   0  0  0  0  0  0  0  0  0  0  0  0
   -2.9490   13.6330   -4.6670 O   0  0  0  0  0  0  0  0  0  0  0  0
   -1.1310   15.9900   -2.9840 C   0  0  0  0  0  0  0  0  0  0  0  0
  1  2  1  0
  2  3  2  0
  1  4  1  0
  2  5  1  0
  4  6  2  0
  4  7  1  0
  5  8  2  0
  3  9  1  0
  5 10  1  0
  6 11  1  0
  7 12  2  0
 11 13  1  0
  8 14  1  0
  9 14  2  0
  8 15  1  0
 10 16  2  0
 11 17  2  0
 12 17  1  0
 13 18  1  0
 13 19  2  0
 15 20  2  0
 16 20  1  0
M  END
