mac-x0277-mac-x0373
     RDKit          3D

 27 29  0  0  0  0  0  0  0  0999 V2000
   -1.2320   18.4640   -5.2580 Cl  0  0  0  0  0  0  0  0  0  0  0  0
   -0.5510   16.9100   -4.9530 C   0  0  0  0  0  0  0  0  0  0  0  0
   -1.3020   15.7530   -5.0840 C   0  0  0  0  0  0  0  0  0  0  0  0
    0.7880   16.8250   -4.5660 C   0  0  0  0  0  0  0  0  0  0  0  0
   -2.9680   15.7820   -5.5540 Cl  0  0  0  0  0  0  0  0  0  0  0  0
   -0.7150   14.5130   -4.8370 C   0  0  0  0  0  0  0  0  0  0  0  0
    1.3770   15.5800   -4.3110 C   0  0  0  0  0  0  0  0  0  0  0  0
    0.6290   14.4050   -4.4450 C   0  0  0  0  0  0  0  0  0  0  0  0
    1.2360   13.0340   -4.1710 C   0  0  0  0  0  0  0  0  0  0  0  0
    0.7820   12.3900   -2.8630 C   0  0  0  0  0  0  0  0  0  0  0  0
    0.9820   11.0850   -2.8070 O   0  0  0  0  0  0  0  0  0  0  0  0
    0.2380   13.0030   -1.8900 N   0  0  0  0  0  0  0  0  0  0  0  0
   -0.0500   14.3100   -1.9950 C   0  0  0  0  0  0  0  0  0  0  0  0
    0.6660   15.2420   -1.6270 O   0  0  0  0  0  0  0  0  0  0  0  0
   -1.4260   14.4530   -2.6650 C   0  0  0  0  0  0  0  0  0  0  0  0
   -1.7790   13.1850   -3.4800 C   0  0  0  0  0  0  0  0  0  0  0  0
   -2.5150   14.8540   -1.6830 C   0  0  0  0  0  0  0  0  0  0  0  0
   -1.2360   12.8830   -4.7510 C   0  0  0  0  0  0  0  0  0  0  0  0
   -2.6890   12.2650   -2.9320 C   0  0  0  0  0  0  0  0  0  0  0  0
   -3.7380   15.3850   -2.1140 C   0  0  0  0  0  0  0  0  0  0  0  0
   -2.2930   14.6860   -0.3070 C   0  0  0  0  0  0  0  0  0  0  0  0
   -1.5840   11.7170   -5.4350 C   0  0  0  0  0  0  0  0  0  0  0  0
   -3.0360   11.0990   -3.6220 C   0  0  0  0  0  0  0  0  0  0  0  0
   -4.7130   15.7430   -1.1910 C   0  0  0  0  0  0  0  0  0  0  0  0
   -3.2740   15.0470    0.6140 C   0  0  0  0  0  0  0  0  0  0  0  0
   -2.4840   10.8260   -4.8680 C   0  0  0  0  0  0  0  0  0  0  0  0
   -4.4780   15.5730    0.1670 C   0  0  0  0  0  0  0  0  0  0  0  0
  1  2  1  0
  2  3  2  0
  2  4  1  0
  3  5  1  0
  3  6  1  0
  4  7  2  0
  6  8  2  0
  7  8  1  0
  8  9  1  0
  9 10  1  0
 10 11  1  0
 10 12  2  3
 12 13  1  0
 13 14  2  0
 13 15  1  0
 15 16  1  0
 15 17  1  0
 16 18  2  0
 16 19  1  0
 17 20  2  0
 17 21  1  0
 18 22  1  0
 19 23  2  0
 20 24  1  0
 21 25  2  0
 22 26  2  0
 23 26  1  0
 24 27  2  0
 25 27  1  0
M  END
