mac-x0439-mac-x0212
     RDKit          3D

 28 30  0  0  0  0  0  0  0  0999 V2000
   -3.0820   16.0760   -5.4700 Cl  0  0  0  0  0  0  0  0  0  0  0  0
   -1.6130   16.9700   -5.4410 C   0  0  0  0  0  0  0  0  0  0  0  0
   -0.6360   16.8310   -4.3280 C   0  0  1  0  0  0  0  0  0  0  0  0
   -1.3320   17.8290   -6.4220 C   0  0  0  0  0  0  0  0  0  0  0  0
   -0.3690   15.6220   -3.4700 C   0  0  0  0  0  0  0  0  0  0  0  0
    0.7510   16.9970   -4.8190 C   0  0  0  0  0  0  0  0  0  0  0  0
   -0.0760   18.5520   -6.4410 C   0  0  0  0  0  0  0  0  0  0  0  0
    0.9340   15.2930   -3.5340 C   0  0  0  0  0  0  0  0  0  0  0  0
    1.6070   16.1160   -4.3960 N   0  0  0  0  0  0  0  0  0  0  0  0
    0.9740   18.1720   -5.6940 C   0  0  0  0  0  0  0  0  0  0  0  0
    1.6640   14.2020   -2.7690 C   0  0  0  0  0  0  0  0  0  0  0  0
    2.9980   14.4020   -2.7990 O   0  0  0  0  0  0  0  0  0  0  0  0
    1.1970   13.1950   -2.1280 N   0  0  0  0  0  0  0  0  0  0  0  0
   -0.2090   12.9260   -2.0210 C   0  0  0  0  0  0  0  0  0  0  0  0
   -0.8740   13.3990   -3.2130 N   0  0  0  0  0  0  0  0  0  0  0  0
   -1.9980   14.0020   -3.1090 C   0  0  0  0  0  0  0  0  0  0  0  0
   -2.5500   14.3970   -4.2540 O   0  0  0  0  0  0  0  0  0  0  0  0
   -2.8730   14.3550   -1.9790 C   0  0  0  0  0  0  0  0  0  0  0  0
   -2.5530   13.9260   -0.6910 C   0  0  0  0  0  0  0  0  0  0  0  0
   -4.0330   15.1080   -2.2020 C   0  0  0  0  0  0  0  0  0  0  0  0
   -3.3950   14.2210    0.3740 C   0  0  0  0  0  0  0  0  0  0  0  0
   -4.8800   15.4040   -1.1250 C   0  0  0  0  0  0  0  0  0  0  0  0
   -4.5590   14.9460    0.1580 C   0  0  0  0  0  0  0  0  0  0  0  0
   -5.3950   15.1710    1.2860 N   0  0  0  0  0  0  0  0  0  0  0  0
   -6.9320   14.4810    1.1460 S   0  0  0  0  0  0  0  0  0  0  0  0
   -6.5590   12.7590    1.4460 C   0  0  0  0  0  0  0  0  0  0  0  0
   -7.8050   14.9620    2.1940 O   0  0  0  0  0  0  0  0  0  0  0  0
   -7.3160   14.6120   -0.2450 O   0  0  0  0  0  0  0  0  0  0  0  0
  1  2  1  0
  2  3  1  0
  2  4  2  0
  3  5  1  6
  3  6  1  0
  4  7  1  0
  5  8  2  0
  6  9  2  0
  8  9  1  0
  6 10  1  0
  7 10  2  0
  8 11  1  0
 11 12  1  0
 11 13  2  3
 13 14  1  0
 14 15  1  0
 15 16  2  3
 16 17  1  0
 16 18  1  0
 18 19  2  0
 18 20  1  0
 19 21  1  0
 20 22  2  0
 21 23  2  0
 22 23  1  0
 23 24  1  0
 25 24  1  0
 25 26  1  0
 25 27  2  0
 25 28  2  0
M  END
