mac-x0402-mac-x0116
     RDKit          3D

 23 27  0  0  0  0  0  0  0  0999 V2000
   -2.5810   15.2710   -3.7590 Cl  0  0  0  0  0  0  0  0  0  0  0  0
   -3.4350   14.3250   -2.4860 C   0  0  2  0  0  0  0  0  0  0  0  0
   -4.5650   15.1230   -1.8570 C   0  0  0  0  0  0  0  0  0  0  0  0
   -2.4970   13.8310   -1.3340 C   0  0  1  0  0  0  0  0  0  0  0  0
   -3.2940   12.8130   -0.4480 C   0  0  2  0  0  0  0  0  0  0  0  0
   -5.6670   14.1840   -1.3980 C   0  0  2  0  0  0  0  0  0  0  0  0
   -1.1560   13.2180   -1.6960 N   0  0  0  0  0  0  0  0  0  0  0  0
   -1.9210   15.0270   -0.5730 C   0  0  0  0  0  0  0  0  0  0  0  0
   -6.8780   15.0270   -0.9110 N   0  0  0  0  0  0  0  0  0  0  0  0
   -5.0440   13.1330   -0.3430 C   0  0  2  0  0  0  0  0  0  0  0  0
   -0.9050   14.4560    0.2900 N   0  0  0  0  0  0  0  0  0  0  0  0
   -0.3020   13.4340   -0.5240 C   0  0  0  0  0  0  0  0  0  0  0  0
   -3.3880   12.9140    1.0890 C   0  0  0  0  0  0  0  0  0  0  0  0
   -7.5470   14.7360    0.4000 C   0  0  2  0  0  0  0  0  0  0  0  0
   -5.7530   13.4110    1.1280 N   0  0  0  0  0  0  0  0  0  0  0  0
   -3.4790   13.0150    2.6310 S   0  0  0  0  0  0  0  0  0  0  0  0
   -6.4110   14.6710    1.4100 C   0  0  0  0  0  0  0  0  0  0  0  0
   -8.4010   13.2730    0.2930 C   0  0  0  0  0  0  0  0  0  0  0  0
   -4.6020   13.2110    1.8890 C   0  0  0  0  0  0  0  0  0  0  0  0
   -8.8650   12.3200    0.3740 O   0  0  0  0  0  0  0  0  0  0  0  0
   -7.7860   12.8910    1.6310 C   0  0  0  0  0  0  0  0  0  0  0  0
   -8.2410   11.6120    2.0990 C   0  0  0  0  0  0  0  0  0  0  0  0
   -9.0620   11.2750    1.0990 C   0  0  0  0  0  0  0  0  0  0  0  0
  2  1  1  6
  2  3  1  0
  2  4  1  0
  4  5  1  0
  6  3  1  1
  4  7  1  0
  4  8  1  1
  6  9  1  0
  5 10  1  0
  6 10  1  0
  8 11  1  0
  7 12  1  0
 11 12  1  0
  5 13  1  1
  9 14  1  0
 10 15  1  1
 13 16  2  0
 14 17  1  0
 15 17  1  0
 14 18  1  6
 15 19  1  0
 16 19  2  0
 18 20  1  0
 18 21  2  0
 21 22  1  0
 20 23  1  0
 22 23  2  0
M  END
