mac-x0284-diamond-x0662_0_A
     RDKit          3D

 31 33  0  0  0  0  0  0  0  0999 V2000
   -4.0790   15.4230    0.7230 C   0  0  0  0  0  0  0  0  0  0  0  0
   -3.5180   15.2040   -0.6530 C   0  0  0  0  0  0  0  0  0  0  0  0
   -4.3170   15.3580   -1.7930 C   0  0  0  0  0  0  0  0  0  0  0  0
   -2.1680   14.8470   -0.8110 C   0  0  0  0  0  0  0  0  0  0  0  0
   -1.6270   14.6590   -2.0950 C   0  0  0  0  0  0  0  0  0  0  0  0
   -3.7820   15.1630   -3.0720 C   0  0  0  0  0  0  0  0  0  0  0  0
   -0.1960   14.3050   -2.1810 C   0  0  0  0  0  0  0  0  0  0  0  0
   -2.4390   14.8170   -3.2210 C   0  0  0  0  0  0  0  0  0  0  0  0
   -1.9390   14.6420   -4.4800 O   0  0  0  0  0  0  0  0  0  0  0  0
    0.5570   14.2810   -1.2230 O   0  0  0  0  0  0  0  0  0  0  0  0
    0.1270   14.0360   -3.4670 O   0  0  0  0  0  0  0  0  0  0  0  0
    1.0020   12.9140   -3.6930 C   0  0  0  0  0  0  0  0  0  0  0  0
    1.7450   13.0490   -5.0250 C   0  0  0  0  0  0  0  0  0  0  0  0
    1.1270   12.3760   -6.1500 O   0  0  0  0  0  0  0  0  0  0  0  0
    0.1430   11.4540   -5.9740 C   0  0  0  0  0  0  0  0  0  0  0  0
   -0.5630   11.3140   -4.9900 O   0  0  0  0  0  0  0  0  0  0  0  0
    0.0200   10.5980   -7.1860 C   0  0  0  0  0  0  0  0  0  0  0  0
   -0.9090    9.5620   -7.1700 C   0  0  0  0  0  0  0  0  0  0  0  0
    0.7940   10.7930   -8.3330 C   0  0  0  0  0  0  0  0  0  0  0  0
   -1.0520    8.7450   -8.2890 C   0  0  0  0  0  0  0  0  0  0  0  0
    0.6610    9.9830   -9.4640 C   0  0  0  0  0  0  0  0  0  0  0  0
    1.4780   10.2550  -10.5770 N   0  0  0  0  0  0  0  0  0  0  0  0
   -0.2730    8.9530   -9.4310 C   0  0  0  0  0  0  0  0  0  0  0  0
    2.2500    9.4340  -11.3790 C   0  0  0  0  0  0  0  0  0  0  0  0
    2.3420    8.2480  -11.0480 O   0  0  0  0  0  0  0  0  0  0  0  0
    2.9700    9.9280  -12.5710 C   0  0  0  0  0  0  0  0  0  0  0  0
    2.7870   11.1850  -13.2200 C   0  0  0  0  0  0  0  0  0  0  0  0
    3.9260    9.2220  -13.1980 N   0  0  0  0  0  0  0  0  0  0  0  0
    4.3320   10.0120  -14.2040 N   0  0  0  0  0  0  0  0  0  0  0  0
    3.6790   11.2030  -14.2660 C   0  0  0  0  0  0  0  0  0  0  0  0
    5.3750    9.5380  -15.0800 C   0  0  0  0  0  0  0  0  0  0  0  0
  1  2  1  0
  2  3  2  0
  2  4  1  0
  4  5  2  0
  3  6  1  0
  5  7  1  0
  5  8  1  0
  6  8  2  0
  8  9  1  0
  7 10  2  0
  7 11  1  0
 11 12  1  0
 12 13  1  0
 13 14  1  0
 14 15  1  0
 15 16  2  0
 15 17  1  0
 17 18  2  0
 17 19  1  0
 18 20  1  0
 19 21  2  0
 21 22  1  0
 20 23  2  0
 21 23  1  0
 22 24  1  0
 24 25  2  0
 24 26  1  0
 26 27  1  0
 26 28  2  0
 28 29  1  0
 27 30  2  0
 29 30  1  0
 29 31  1  0
M  END
