mac-x0213-diamond-x0844_0_A
     RDKit          3D

 21 23  0  0  0  0  0  0  0  0999 V2000
    0.0110   11.9490   -3.4030 O   0  0  0  0  0  0  0  0  0  0  0  0
    0.0170   12.9590   -2.5100 C   0  0  0  0  0  0  0  0  0  0  0  0
    0.2910   12.7460   -1.3320 O   0  0  0  0  0  0  0  0  0  0  0  0
   -0.3470   14.3130   -3.0760 C   0  0  2  0  0  0  0  0  0  0  0  0
   -1.5970   14.3430   -4.0070 C   0  0  1  0  0  0  0  0  0  0  0  0
    0.7820   14.9740   -3.8980 C   0  0  0  0  0  0  0  0  0  0  0  0
   -2.9720   14.2600   -3.2930 C   0  0  0  0  0  0  0  0  0  0  0  0
   -1.3660   15.6970   -4.6360 C   0  0  0  0  0  0  0  0  0  0  0  0
   -0.0120   16.0500   -4.5690 C   0  0  0  0  0  0  0  0  0  0  0  0
   -2.8570   14.4480   -1.8760 O   0  0  0  0  0  0  0  0  0  0  0  0
   -2.2920   16.5450   -5.2190 C   0  0  0  0  0  0  0  0  0  0  0  0
    0.4360   17.2600   -5.0800 C   0  0  0  0  0  0  0  0  0  0  0  0
   -1.8490   17.7630   -5.7350 C   0  0  0  0  0  0  0  0  0  0  0  0
   -0.4980   18.1160   -5.6650 C   0  0  0  0  0  0  0  0  0  0  0  0
   -3.8790   15.2380   -1.2270 C   0  0  2  0  0  0  0  0  0  0  0  0
   -3.4720   15.3000    0.2120 C   0  0  0  0  0  0  0  0  0  0  0  0
   -5.3130   14.7330   -1.4420 C   0  0  0  0  0  0  0  0  0  0  0  0
   -4.3160   15.1240    1.2190 C   0  0  0  0  0  0  0  0  0  0  0  0
   -6.2220   14.8490   -0.2310 C   0  0  0  0  0  0  0  0  0  0  0  0
   -7.4500   14.9300   -0.3280 O   0  0  0  0  0  0  0  0  0  0  0  0
   -5.6300   14.8590    1.0010 N   0  0  0  0  0  0  0  0  0  0  0  0
  1  2  1  0
  2  3  2  0
  4  2  1  6
  4  5  1  0
  4  6  1  0
  5  7  1  1
  5  8  1  0
  6  9  1  0
  8  9  2  0
  7 10  1  0
  8 11  1  0
  9 12  1  0
 11 13  2  0
 12 14  2  0
 13 14  1  0
 15 10  1  6
 15 16  1  0
 15 17  1  0
 16 18  2  0
 17 19  1  0
 19 20  2  0
 18 21  1  0
 19 21  1  0
M  END
