mac-x0433-mac-x0319
     RDKit          3D

 23 24  0  0  0  0  0  0  0  0999 V2000
   -3.1180   15.4090    0.9160 C   0  0  0  0  0  0  0  0  0  0  0  0
   -4.4240   15.1860    0.2370 C   0  0  0  0  0  0  0  0  0  0  0  0
   -5.5610   14.9200    0.9610 C   0  0  0  0  0  0  0  0  0  0  0  0
   -4.4340   15.2550   -1.0900 N   0  0  0  0  0  0  0  0  0  0  0  0
   -5.5900   15.0540   -1.7100 C   0  0  0  0  0  0  0  0  0  0  0  0
   -6.7210   14.7320    0.2370 C   0  0  0  0  0  0  0  0  0  0  0  0
   -8.0100   14.4440    0.9410 C   0  0  0  0  0  0  0  0  0  0  0  0
   -5.4540   15.1340   -3.0650 N   0  0  0  0  0  0  0  0  0  0  0  0
   -6.7520   14.7970   -1.1060 N   0  0  0  0  0  0  0  0  0  0  0  0
   -4.0550   15.0210   -3.4410 C   0  0  0  0  0  0  0  0  0  0  0  0
   -3.8640   14.3760   -4.7990 C   0  0  0  0  0  0  0  0  0  0  0  0
   -2.8150   15.1070   -5.6260 C   0  0  0  0  0  0  0  0  0  0  0  0
   -1.4130   15.0220   -5.0380 C   0  0  0  0  0  0  0  0  0  0  0  0
   -0.6860   16.1980   -4.8180 C   0  0  0  0  0  0  0  0  0  0  0  0
   -0.8190   13.7880   -4.7160 C   0  0  0  0  0  0  0  0  0  0  0  0
    0.4850   13.7200   -4.1830 C   0  0  0  0  0  0  0  0  0  0  0  0
    0.5970   16.1390   -4.2940 C   0  0  0  0  0  0  0  0  0  0  0  0
    1.1040   12.3790   -3.8390 C   0  0  0  0  0  0  0  0  0  0  0  0
    1.2950   17.2890   -4.0810 O   0  0  0  0  0  0  0  0  0  0  0  0
    1.1940   14.9200   -3.9770 C   0  0  0  0  0  0  0  0  0  0  0  0
    0.6850   11.8320   -2.4830 C   0  0  0  0  0  0  0  0  0  0  0  0
    0.3270   10.5170   -2.5100 O   0  0  0  0  0  0  0  0  0  0  0  0
    0.6300   12.4220   -1.4150 O   0  0  0  0  0  0  0  0  0  0  0  0
  1  2  1  0
  2  3  2  0
  2  4  1  0
  4  5  2  0
  3  6  1  0
  6  7  1  0
  5  8  1  0
  5  9  1  0
  6  9  2  0
  8 10  1  0
 10 11  1  0
 11 12  1  0
 12 13  1  0
 13 14  2  0
 13 15  1  0
 15 16  2  0
 14 17  1  0
 16 18  1  0
 17 19  1  0
 16 20  1  0
 17 20  2  0
 18 21  1  0
 21 22  1  0
 21 23  2  0
M  END
