mac-x0365-mac-x0379
     RDKit          3D

 12 12  0  0  0  0  0  0  0  0999 V2000
   -0.6240   15.0500   -1.4500 O   0  0  0  0  0  0  0  0  0  0  0  0
   -1.6780   14.6180   -2.3070 C   0  0  2  0  0  0  0  0  0  0  0  0
   -1.7260   15.2380   -3.6660 N   0  0  0  0  0  0  0  0  0  0  0  0
   -3.0310   14.7670   -1.6350 C   0  0  0  0  0  0  0  0  0  0  0  0
   -0.8950   14.7380   -4.4360 O   0  0  0  0  0  0  0  0  0  0  0  0
   -4.1870   14.9140   -2.4140 C   0  0  0  0  0  0  0  0  0  0  0  0
   -3.1670   14.7560   -0.2310 C   0  0  0  0  0  0  0  0  0  0  0  0
   -5.4310   15.0360   -1.8130 C   0  0  0  0  0  0  0  0  0  0  0  0
   -4.4270   14.8800    0.3680 C   0  0  0  0  0  0  0  0  0  0  0  0
   -6.5110   15.1690   -2.5860 F   0  0  0  0  0  0  0  0  0  0  0  0
   -5.5590   15.0160   -0.4350 C   0  0  0  0  0  0  0  0  0  0  0  0
   -6.8040   15.1300    0.1050 O   0  0  0  0  0  0  0  0  0  0  0  0
  2  1  1  1
  2  3  1  0
  2  4  1  0
  3  5  2  0
  4  6  2  0
  4  7  1  0
  6  8  1  0
  7  9  2  0
  8 10  1  0
  8 11  2  0
  9 11  1  0
 11 12  1  0
M  END
