mac-x0373-mac-x0546
     RDKit          3D

 30 33  0  0  0  0  0  0  0  0999 V2000
    0.1200   12.7610   -1.7250 N   0  0  0  0  0  0  0  0  0  0  0  0
   -0.0580   14.0910   -1.9640 C   0  0  0  0  0  0  0  0  0  0  0  0
    0.7460   14.9810   -1.6700 O   0  0  0  0  0  0  0  0  0  0  0  0
    0.4410   11.9720   -2.6940 C   0  0  0  0  0  0  0  0  0  0  0  0
   -1.4060   14.3480   -2.6530 C   0  0  0  0  0  0  0  0  0  0  0  0
    0.7000   12.4520   -4.1350 C   0  0  0  0  0  0  0  0  0  0  0  0
    0.5700   10.6260   -2.5290 O   0  0  0  0  0  0  0  0  0  0  0  0
   -1.8170   13.1130   -3.4720 C   0  0  0  0  0  0  0  0  0  0  0  0
   -2.5060   14.8040   -1.7090 C   0  0  0  0  0  0  0  0  0  0  0  0
    0.8130   13.9550   -4.2880 C   0  0  0  0  0  0  0  0  0  0  0  0
   -1.3410   12.8990   -4.7840 C   0  0  0  0  0  0  0  0  0  0  0  0
   -2.6830   12.1540   -2.9290 C   0  0  0  0  0  0  0  0  0  0  0  0
   -3.7230   15.3450   -2.1430 C   0  0  0  0  0  0  0  0  0  0  0  0
   -2.2840   14.6700   -0.3260 C   0  0  0  0  0  0  0  0  0  0  0  0
   -0.0490   14.8240   -5.1680 C   0  0  1  0  0  0  0  0  0  0  0  0
    1.7130   14.7450   -3.7020 C   0  0  0  0  0  0  0  0  0  0  0  0
   -1.7120   11.7740   -5.5170 C   0  0  0  0  0  0  0  0  0  0  0  0
   -3.0540   11.0280   -3.6660 C   0  0  0  0  0  0  0  0  0  0  0  0
   -4.6890   15.7400   -1.2160 C   0  0  0  0  0  0  0  0  0  0  0  0
   -3.2500   15.0660    0.5960 C   0  0  0  0  0  0  0  0  0  0  0  0
   -1.5440   14.9610   -5.1080 C   0  0  0  0  0  0  0  0  0  0  0  0
    0.5710   16.1500   -4.7850 C   0  0  0  0  0  0  0  0  0  0  0  0
    1.5740   16.0760   -3.9910 N   0  0  0  0  0  0  0  0  0  0  0  0
   -2.5680   10.8390   -4.9560 C   0  0  0  0  0  0  0  0  0  0  0  0
   -4.4480   15.5990    0.1460 C   0  0  0  0  0  0  0  0  0  0  0  0
   -2.1260   16.1570   -5.3100 C   0  0  0  0  0  0  0  0  0  0  0  0
    0.0030   17.3980   -5.3240 C   0  0  0  0  0  0  0  0  0  0  0  0
   -3.4650   16.3870   -5.3220 O   0  0  0  0  0  0  0  0  0  0  0  0
   -1.3240   17.3520   -5.5600 C   0  0  0  0  0  0  0  0  0  0  0  0
   -4.2740   15.3330   -5.8420 C   0  0  0  0  0  0  0  0  0  0  0  0
  1  2  1  0
  2  3  2  0
  1  4  2  3
  2  5  1  0
  4  6  1  0
  4  7  1  0
  5  8  1  0
  5  9  1  0
  6 10  1  0
  8 11  2  0
  8 12  1  0
  9 13  2  0
  9 14  1  0
 10 15  1  0
 10 16  2  0
 11 17  1  0
 12 18  2  0
 13 19  1  0
 14 20  2  0
 15 21  1  1
 15 22  1  0
 16 23  1  0
 22 23  2  0
 17 24  2  0
 18 24  1  0
 19 25  2  0
 20 25  1  0
 21 26  2  0
 22 27  1  0
 26 28  1  0
 26 29  1  0
 27 29  2  0
 28 30  1  0
M  END
