mac-x0271-mac-x0381
     RDKit          3D

 25 28  0  0  0  0  0  0  0  0999 V2000
   -3.5850   15.1810   -3.2400 O   0  0  0  0  0  0  0  0  0  0  0  0
   -4.2080   15.1150   -2.0320 C   0  0  0  0  0  0  0  0  0  0  0  0
   -3.4010   15.1890   -0.9020 C   0  0  0  0  0  0  0  0  0  0  0  0
   -5.5850   14.9750   -1.9230 C   0  0  0  0  0  0  0  0  0  0  0  0
   -6.1270   14.9080   -0.6450 C   0  0  0  0  0  0  0  0  0  0  0  0
   -3.9610   15.1280    0.3650 C   0  0  0  0  0  0  0  0  0  0  0  0
   -5.3310   14.9850    0.4880 C   0  0  0  0  0  0  0  0  0  0  0  0
   -7.5150   14.7540   -0.5180 O   0  0  0  0  0  0  0  0  0  0  0  0
   -5.9450   14.9100    1.7840 C   0  0  0  0  0  0  0  0  0  0  0  0
   -8.1030   14.9610    0.7110 C   0  0  0  0  0  0  0  0  0  0  0  0
   -9.3310   15.2530    0.8010 N   0  0  0  0  0  0  0  0  0  0  0  0
   -7.2640   14.8800    1.8910 C   0  0  0  0  0  0  0  0  0  0  0  0
  -10.0140   15.5060    2.0140 C   0  0  0  0  0  0  0  0  0  0  0  0
   -9.6630   15.1980    3.3780 C   0  0  0  0  0  0  0  0  0  0  0  0
  -11.2270   16.1640    1.7570 C   0  0  0  0  0  0  0  0  0  0  0  0
   -8.4170   14.5440    3.9000 C   0  0  0  0  0  0  0  0  0  0  0  0
  -12.1030   16.4860    2.8010 C   0  0  0  0  0  0  0  0  0  0  0  0
  -10.5560   15.5320    4.3970 C   0  0  0  0  0  0  0  0  0  0  0  0
  -11.5850   16.5110    0.4420 C   0  0  0  0  0  0  0  0  0  0  0  0
   -8.0370   13.2690    3.6030 N   0  0  0  0  0  0  0  0  0  0  0  0
   -7.6460   15.2100    4.7130 N   0  0  0  0  0  0  0  0  0  0  0  0
  -11.7610   16.1610    4.1100 C   0  0  0  0  0  0  0  0  0  0  0  0
  -13.3110   17.1310    2.5090 C   0  0  0  0  0  0  0  0  0  0  0  0
  -12.7840   17.1570    0.1640 C   0  0  0  0  0  0  0  0  0  0  0  0
  -13.6490   17.4630    1.2020 C   0  0  0  0  0  0  0  0  0  0  0  0
  1  2  1  0
  2  3  2  0
  2  4  1  0
  4  5  2  0
  3  6  1  0
  5  7  1  0
  6  7  2  0
  5  8  1  0
  7  9  1  0
  8 10  1  0
 10 11  2  3
  9 12  2  0
 10 12  1  0
 11 13  1  0
 13 14  2  0
 13 15  1  0
 14 16  1  0
 15 17  2  0
 14 18  1  0
 15 19  1  0
 16 20  1  0
 16 21  2  3
 17 22  1  0
 18 22  2  0
 17 23  1  0
 19 24  2  0
 23 25  2  0
 24 25  1  0
M  END
