mac-x0319-diamond-x0628_0_A
     RDKit          3D

 19 20  0  0  0  0  0  0  0  0999 V2000
    0.5890   10.7740   -2.9540 O   0  0  0  0  0  0  0  0  0  0  0  0
    0.7710   12.0930   -2.7630 C   0  0  0  0  0  0  0  0  0  0  0  0
    0.6570   12.5660   -1.6230 O   0  0  0  0  0  0  0  0  0  0  0  0
    1.1300   12.9570   -4.0010 C   0  0  1  0  0  0  0  0  0  0  0  0
    0.9690   12.2990   -5.3620 C   0  0  0  0  0  0  0  0  0  0  0  0
    0.4830   14.2900   -4.1790 C   0  0  0  0  0  0  0  0  0  0  0  0
    1.2180   15.4640   -4.0240 C   0  0  0  0  0  0  0  0  0  0  0  0
   -0.8680   14.3780   -4.5360 C   0  0  0  0  0  0  0  0  0  0  0  0
   -0.1340   11.4170   -5.6350 N   0  0  0  0  0  0  0  0  0  0  0  0
    0.5960   16.6870   -4.2270 C   0  0  0  0  0  0  0  0  0  0  0  0
   -1.4790   15.6050   -4.7350 C   0  0  0  0  0  0  0  0  0  0  0  0
    0.0110   10.5570   -6.6520 N   0  0  0  0  0  0  0  0  0  0  0  0
   -1.3720   11.2730   -5.0300 C   0  0  0  0  0  0  0  0  0  0  0  0
    1.3310   17.8150   -4.0680 O   0  0  0  0  0  0  0  0  0  0  0  0
   -1.9010   12.0440   -3.8760 C   0  0  0  0  0  0  0  0  0  0  0  0
   -0.7410   16.7660   -4.5830 C   0  0  0  0  0  0  0  0  0  0  0  0
   -2.0150   10.3140   -5.6590 N   0  0  0  0  0  0  0  0  0  0  0  0
   -1.1430    9.9080   -6.6260 C   0  0  0  0  0  0  0  0  0  0  0  0
   -1.4390    8.8300   -7.5800 C   0  0  0  0  0  0  0  0  0  0  0  0
  1  2  1  0
  2  3  2  0
  2  4  1  0
  4  5  1  6
  4  6  1  0
  6  7  2  0
  6  8  1  0
  5  9  1  0
  7 10  1  0
  8 11  2  0
  9 12  1  0
  9 13  1  0
 10 14  1  0
 13 15  1  0
 10 16  2  0
 11 16  1  0
 13 17  2  0
 12 18  2  0
 17 18  1  0
 18 19  1  0
M  END
