mac-x0439-mac-x0441
     RDKit          3D

 29 32  0  0  0  0  0  0  0  0999 V2000
   -3.1520   15.7210   -4.9570 Cl  0  0  0  0  0  0  0  0  0  0  0  0
   -1.6780   16.5680   -5.2060 C   0  0  0  0  0  0  0  0  0  0  0  0
   -0.4180   15.8030   -5.0300 C   0  0  2  0  0  0  0  0  0  0  0  0
   -1.6380   17.8610   -5.5760 C   0  0  0  0  0  0  0  0  0  0  0  0
   -0.1210   14.7300   -4.0550 C   0  0  0  0  0  0  0  0  0  0  0  0
    0.7370   16.7060   -4.7170 C   0  0  0  0  0  0  0  0  0  0  0  0
   -0.3640   18.5350   -5.7930 C   0  0  0  0  0  0  0  0  0  0  0  0
    1.0690   14.9930   -3.4940 C   0  0  0  0  0  0  0  0  0  0  0  0
    1.5820   16.2050   -3.8800 N   0  0  0  0  0  0  0  0  0  0  0  0
    0.8110   18.0190   -5.3930 C   0  0  0  0  0  0  0  0  0  0  0  0
    1.7660   14.0700   -2.5470 C   0  0  0  0  0  0  0  0  0  0  0  0
    2.6790   14.6660   -1.7270 O   0  0  0  0  0  0  0  0  0  0  0  0
    1.5670   12.8020   -2.5110 N   0  0  0  0  0  0  0  0  0  0  0  0
    0.6070   12.1780   -3.4350 C   0  0  2  0  0  0  0  0  0  0  0  0
    0.5450   10.7630   -3.2890 O   0  0  0  0  0  0  0  0  0  0  0  0
    0.8760   12.5840   -4.9110 C   0  0  0  0  0  0  0  0  0  0  0  0
    0.4560   11.6690   -5.9820 N   0  0  0  0  0  0  0  0  0  0  0  0
    1.1990   11.6800   -7.1190 N   0  0  0  0  0  0  0  0  0  0  0  0
   -0.5790   10.7710   -6.0770 C   0  0  0  0  0  0  0  0  0  0  0  0
    0.6160   10.7760   -7.9380 C   0  0  0  0  0  0  0  0  0  0  0  0
   -0.4880   10.1930   -7.3140 C   0  0  0  0  0  0  0  0  0  0  0  0
   -1.6170   10.4480   -5.0870 C   0  0  0  0  0  0  0  0  0  0  0  0
    1.0340   10.3980   -9.3350 C   0  0  0  0  0  0  0  0  0  0  0  0
   -1.4160    9.1590   -7.8280 C   0  0  0  0  0  0  0  0  0  0  0  0
   -2.6970    9.5130   -5.6880 C   0  0  0  0  0  0  0  0  0  0  0  0
    1.7190    9.2270   -9.4050 F   0  0  0  0  0  0  0  0  0  0  0  0
   -0.0560   10.2260  -10.1230 F   0  0  0  0  0  0  0  0  0  0  0  0
    1.7440   11.3350   -9.9950 F   0  0  0  0  0  0  0  0  0  0  0  0
   -2.1340    8.4760   -6.6610 C   0  0  0  0  0  0  0  0  0  0  0  0
  1  2  1  0
  2  3  1  0
  2  4  2  0
  3  5  1  1
  3  6  1  0
  4  7  1  0
  5  8  2  0
  6  9  2  0
  8  9  1  0
  6 10  1  0
  7 10  2  0
  8 11  1  0
 11 12  1  0
 11 13  2  3
 13 14  1  0
 14 15  1  6
 14 16  1  0
 16 17  1  0
 17 18  1  0
 17 19  1  0
 18 20  2  0
 19 21  2  0
 20 21  1  0
 19 22  1  0
 20 23  1  0
 21 24  1  0
 22 25  1  0
 23 26  1  0
 23 27  1  0
 23 28  1  0
 24 29  1  0
 25 29  1  0
M  END
