mac-x0587-mac-x0132
     RDKit          3D

 21 22  0  0  0  0  0  0  0  0999 V2000
    0.0450   16.1380   -4.2290 C   0  0  0  0  0  0  0  0  0  0  0  0
   -0.6160   14.8580   -3.7050 C   0  0  2  0  0  0  0  0  0  0  0  0
   -0.2680   13.5570   -4.9820 S   0  0  0  0  0  0  0  0  0  0  0  0
   -2.1410   15.0550   -3.4760 C   0  0  0  0  0  0  0  0  0  0  0  0
   -0.6510   12.0370   -4.0450 C   0  0  0  0  0  0  0  0  0  0  0  0
   -2.9090   15.3020   -4.4160 O   0  0  0  0  0  0  0  0  0  0  0  0
   -2.6450   14.9470   -2.1720 N   0  0  0  0  0  0  0  0  0  0  0  0
    0.4710   11.5980   -3.1310 C   0  0  0  0  0  0  0  0  0  0  0  0
   -3.9810   15.3890   -1.7850 C   0  0  0  0  0  0  0  0  0  0  0  0
   -1.9970   14.5800   -0.9930 C   0  0  0  0  0  0  0  0  0  0  0  0
    0.5750   10.4400   -2.7580 O   0  0  0  0  0  0  0  0  0  0  0  0
    1.3430   12.5610   -2.7460 O   0  0  0  0  0  0  0  0  0  0  0  0
   -0.8130   14.6720   -0.7200 O   0  0  0  0  0  0  0  0  0  0  0  0
   -4.3080   14.5670   -0.5310 C   0  0  1  0  0  0  0  0  0  0  0  0
   -2.9800   14.0700   -0.1460 N   0  0  0  0  0  0  0  0  0  0  0  0
   -4.9540   15.3630    0.6400 C   0  0  2  0  0  0  0  0  0  0  0  0
   -5.3830   13.5280   -0.8760 C   0  0  0  0  0  0  0  0  0  0  0  0
   -4.0650   15.4810    1.7760 N   0  0  0  0  0  0  0  0  0  0  0  0
   -6.7600   14.0450   -0.8720 N   0  0  0  0  0  0  0  0  0  0  0  0
   -6.1190   14.7480    1.2620 N   0  0  0  0  0  0  0  0  0  0  0  0
   -7.2510   14.5020    0.4030 C   0  0  0  0  0  0  0  0  0  0  0  0
  2  1  1  6
  2  3  1  0
  2  4  1  0
  3  5  1  0
  4  6  2  0
  4  7  1  0
  5  8  1  0
  7  9  1  0
  7 10  1  0
  8 11  2  0
  8 12  1  0
 10 13  2  0
 14  9  1  6
 10 15  1  0
 14 15  1  0
 14 16  1  0
 14 17  1  0
 16 18  1  1
 17 19  1  0
 16 20  1  0
 19 21  1  0
 20 21  1  0
M  END
