mac-x0301-mac-x0510
     RDKit          3D

 13 14  0  0  0  0  0  0  0  0999 V2000
    0.6160   13.8130   -3.0300 O   0  0  0  0  0  0  0  0  0  0  0  0
   -0.7310   13.8750   -3.0510 C   0  0  0  0  0  0  0  0  0  0  0  0
   -1.4040   13.2480   -3.8520 O   0  0  0  0  0  0  0  0  0  0  0  0
   -1.3070   14.8400   -2.0430 C   0  0  2  0  0  0  0  0  0  0  0  0
   -0.8580   14.7270   -0.5590 C   0  0  1  0  0  0  0  0  0  0  0  0
   -2.7840   15.0220   -2.2770 C   0  0  0  0  0  0  0  0  0  0  0  0
   -1.8800   15.0870    0.5570 C   0  0  1  0  0  0  0  0  0  0  0  0
   -3.7090   15.1480   -1.3170 C   0  0  0  0  0  0  0  0  0  0  0  0
   -0.2820   13.4860   -0.1220 O   0  0  0  0  0  0  0  0  0  0  0  0
   -3.3770   15.1100    0.1270 C   0  0  0  0  0  0  0  0  0  0  0  0
   -1.5550   14.2000    1.6260 O   0  0  0  0  0  0  0  0  0  0  0  0
   -0.2280   13.8630    1.2640 C   0  0  0  0  0  0  0  0  0  0  0  0
   -4.3500   15.1160    0.9000 O   0  0  0  0  0  0  0  0  0  0  0  0
  1  2  1  0
  2  3  2  0
  4  2  1  6
  4  5  1  0
  4  6  1  0
  5  7  1  0
  6  8  2  0
  5  9  1  1
  7 10  1  0
  8 10  1  0
  7 11  1  1
  9 12  1  0
 11 12  1  0
 10 13  2  0
M  END
