mac-x0472-mac-x0354
     RDKit          3D

 33 36  0  0  0  0  0  0  0  0999 V2000
   -4.5660   15.4430   -2.3600 O   0  0  0  0  0  0  0  0  0  0  0  0
   -3.4870   14.5320   -2.6550 S   0  0  0  0  0  0  0  0  0  0  0  0
   -2.9030   14.5020   -3.9790 O   0  0  0  0  0  0  0  0  0  0  0  0
   -2.2150   14.7520   -1.5450 N   0  0  0  0  0  0  0  0  0  0  0  0
   -4.1170   12.8920   -2.2990 C   0  0  0  0  0  0  0  0  0  0  0  0
   -1.0030   13.9260   -1.7370 C   0  0  0  0  0  0  0  0  0  0  0  0
   -2.7540   14.8460   -0.1960 C   0  0  0  0  0  0  0  0  0  0  0  0
   -3.3540   11.7710   -2.6520 C   0  0  0  0  0  0  0  0  0  0  0  0
   -5.3620   12.7390   -1.6820 C   0  0  0  0  0  0  0  0  0  0  0  0
    0.2240   14.7430   -2.1680 C   0  0  0  0  0  0  0  0  0  0  0  0
   -2.0460   14.4100    0.8170 N   0  0  0  0  0  0  0  0  0  0  0  0
   -4.2830   15.5010    0.2130 S   0  0  0  0  0  0  0  0  0  0  0  0
   -3.8500   10.4930   -2.3880 C   0  0  0  0  0  0  0  0  0  0  0  0
   -5.8490   11.4570   -1.4210 C   0  0  0  0  0  0  0  0  0  0  0  0
    1.3480   13.8430   -2.6550 C   0  0  0  0  0  0  0  0  0  0  0  0
   -3.8930   15.1320    1.8330 C   0  0  0  0  0  0  0  0  0  0  0  0
   -2.7150   14.5760    2.0040 N   0  0  0  0  0  0  0  0  0  0  0  0
   -5.0950   10.3390   -1.7770 C   0  0  0  0  0  0  0  0  0  0  0  0
    0.9270   12.4930   -2.3020 N   0  0  0  0  0  0  0  0  0  0  0  0
    0.6980   11.5650   -3.1550 C   0  0  0  0  0  0  0  0  0  0  0  0
    0.2870   10.3350   -2.7200 O   0  0  0  0  0  0  0  0  0  0  0  0
    0.8910   11.7510   -4.6010 C   0  0  0  0  0  0  0  0  0  0  0  0
    1.8490   12.5990   -5.2280 C   0  0  0  0  0  0  0  0  0  0  0  0
    0.2470   11.1550   -5.6910 C   0  0  0  0  0  0  0  0  0  0  0  0
    0.8410   11.6400   -6.8130 N   0  0  0  0  0  0  0  0  0  0  0  0
    1.8130   12.5240   -6.5570 N   0  0  0  0  0  0  0  0  0  0  0  0
   -0.8240   10.1860   -5.8080 C   0  0  0  0  0  0  0  0  0  0  0  0
    0.4970   11.2580   -8.1690 C   0  0  0  0  0  0  0  0  0  0  0  0
   -0.5950    8.9500   -6.4270 C   0  0  0  0  0  0  0  0  0  0  0  0
   -2.0840   10.4910   -5.3050 C   0  0  0  0  0  0  0  0  0  0  0  0
   -1.6290    8.0260   -6.5350 C   0  0  0  0  0  0  0  0  0  0  0  0
   -3.1160    9.5660   -5.4160 C   0  0  0  0  0  0  0  0  0  0  0  0
   -2.8900    8.3350   -6.0290 C   0  0  0  0  0  0  0  0  0  0  0  0
  1  2  2  0
  2  3  2  0
  2  4  1  0
  2  5  1  0
  4  6  1  0
  4  7  1  0
  5  8  2  0
  5  9  1  0
  6 10  1  0
  7 11  2  0
  7 12  1  0
  8 13  1  0
  9 14  2  0
 10 15  1  0
 12 16  1  0
 11 17  1  0
 16 17  2  0
 13 18  2  0
 14 18  1  0
 15 19  1  0
 19 20  2  3
 20 21  1  0
 20 22  1  0
 22 23  1  0
 22 24  2  0
 24 25  1  0
 23 26  2  0
 25 26  1  0
 24 27  1  0
 25 28  1  0
 27 29  2  0
 27 30  1  0
 29 31  1  0
 30 32  2  0
 31 33  2  0
 32 33  1  0
M  END
