mac-x0397-mac-x0358
     RDKit          3D

 23 25  0  0  0  0  0  0  0  0999 V2000
   -6.9210   14.9530   -1.9920 Cl  0  0  0  0  0  0  0  0  0  0  0  0
   -5.2920   15.1710   -1.5400 C   0  0  0  0  0  0  0  0  0  0  0  0
   -4.9810   15.0170   -0.1820 C   0  0  0  0  0  0  0  0  0  0  0  0
   -4.3450   15.4900   -2.4830 C   0  0  0  0  0  0  0  0  0  0  0  0
   -5.8540   14.7080    0.8540 N   0  0  0  0  0  0  0  0  0  0  0  0
   -3.6460   15.1940    0.1820 C   0  0  0  0  0  0  0  0  0  0  0  0
   -3.0300   15.6890   -2.1410 C   0  0  0  0  0  0  0  0  0  0  0  0
   -2.1070   16.0750   -3.2990 C   0  0  0  0  0  0  0  0  0  0  0  0
   -5.2130   14.6480    1.9870 C   0  0  0  0  0  0  0  0  0  0  0  0
   -3.5280   14.9390    1.8890 S   0  0  0  0  0  0  0  0  0  0  0  0
   -2.6440   15.5310   -0.7750 C   0  0  0  0  0  0  0  0  0  0  0  0
   -5.8250   14.3790    3.1560 N   0  0  0  0  0  0  0  0  0  0  0  0
   -1.8840   14.9030   -4.1830 C   0  0  0  0  0  0  0  0  0  0  0  0
   -2.8640   14.3640   -5.0370 C   0  0  0  0  0  0  0  0  0  0  0  0
   -0.6410   14.3260   -4.1010 C   0  0  0  0  0  0  0  0  0  0  0  0
   -0.3380   13.2010   -4.8220 C   0  0  0  0  0  0  0  0  0  0  0  0
   -2.5640   13.2200   -5.7800 C   0  0  0  0  0  0  0  0  0  0  0  0
    1.0240   12.6360   -4.6290 C   0  0  0  0  0  0  0  0  0  0  0  0
   -1.2990   12.6420   -5.6550 C   0  0  0  0  0  0  0  0  0  0  0  0
    1.1040   12.0780   -3.2310 C   0  0  0  0  0  0  0  0  0  0  0  0
   -0.9740   11.5100   -6.3370 O   0  0  0  0  0  0  0  0  0  0  0  0
    1.8180   12.8640   -2.3950 O   0  0  0  0  0  0  0  0  0  0  0  0
    0.5980   11.0540   -2.8110 O   0  0  0  0  0  0  0  0  0  0  0  0
  1  2  1  0
  2  3  2  0
  2  4  1  0
  3  5  1  0
  3  6  1  0
  4  7  2  0
  7  8  1  0
  5  9  2  0
  6 10  1  0
  9 10  1  0
  6 11  2  0
  7 11  1  0
  9 12  1  0
  8 13  1  0
 13 14  2  0
 13 15  1  0
 15 16  2  0
 14 17  1  0
 16 18  1  0
 16 19  1  0
 17 19  2  0
 18 20  1  0
 19 21  1  0
 20 22  1  0
 20 23  2  0
M  END
