mac-x0305-diamond-x0722_0_A
     RDKit          3D

 15 15  0  0  0  0  0  0  0  0999 V2000
    0.5040   13.1950   -0.3700 O   0  0  0  0  0  0  0  0  0  0  0  0
   -0.1020   14.0170   -1.2680 C   0  0  0  0  0  0  0  0  0  0  0  0
    0.4450   14.3400   -2.3130 O   0  0  0  0  0  0  0  0  0  0  0  0
   -1.4840   14.4820   -0.9010 C   0  0  0  0  0  0  0  0  0  0  0  0
   -1.9390   14.7820    0.4120 C   0  0  0  0  0  0  0  0  0  0  0  0
   -2.2770   14.5840   -2.0020 N   0  0  0  0  0  0  0  0  0  0  0  0
   -1.1080   14.6760    1.5230 O   0  0  0  0  0  0  0  0  0  0  0  0
   -3.2760   15.1940    0.5490 C   0  0  0  0  0  0  0  0  0  0  0  0
   -3.5380   14.9770   -1.8280 C   0  0  0  0  0  0  0  0  0  0  0  0
   -3.9100   15.5460    1.8630 C   0  0  0  0  0  0  0  0  0  0  0  0
   -4.0630   15.2790   -0.5970 C   0  0  0  0  0  0  0  0  0  0  0  0
   -5.4720   15.6910   -0.4740 C   0  0  0  0  0  0  0  0  0  0  0  0
   -6.4590   14.6040   -0.7660 C   0  0  0  0  0  0  0  0  0  0  0  0
   -7.5530   14.8230   -1.2540 O   0  0  0  0  0  0  0  0  0  0  0  0
   -6.0710   13.3380   -0.4290 N   0  0  0  0  0  0  0  0  0  0  0  0
  1  2  1  0
  2  3  2  0
  2  4  1  0
  4  5  2  0
  4  6  1  0
  5  7  1  0
  5  8  1  0
  6  9  2  0
  8 10  1  0
  8 11  2  0
  9 11  1  0
 11 12  1  0
 12 13  1  0
 13 14  2  0
 13 15  1  0
M  END
