mac-x0139-diamond-x0524_0_A
     RDKit          3D

 36 39  0  0  0  0  0  0  0  0999 V2000
   -2.2050   15.0150   -3.3870 C   0  0  0  0  0  0  0  0  0  0  0  0
   -1.1060   14.7190   -2.4630 N   0  0  0  0  0  0  0  0  0  0  0  0
    0.2410   14.9330   -3.0310 C   0  0  0  0  0  0  0  0  0  0  0  0
   -1.3010   14.7730   -1.0720 C   0  0  0  0  0  0  0  0  0  0  0  0
    0.7710   13.7280   -3.8040 C   0  0  0  0  0  0  0  0  0  0  0  0
   -2.5250   14.9350   -0.5230 C   0  0  0  0  0  0  0  0  0  0  0  0
   -0.1620   14.6770   -0.2710 N   0  0  0  0  0  0  0  0  0  0  0  0
    1.1390   12.5440   -2.9380 C   0  0  0  0  0  0  0  0  0  0  0  0
   -2.6290   14.9840    0.9470 C   0  0  0  0  0  0  0  0  0  0  0  0
   -0.3270   14.6940    1.0210 C   0  0  0  0  0  0  0  0  0  0  0  0
   -3.8690   15.1110   -0.9580 C   0  0  0  0  0  0  0  0  0  0  0  0
    1.0550   12.5580   -1.7220 O   0  0  0  0  0  0  0  0  0  0  0  0
    1.5780   11.4690   -3.6390 O   0  0  0  0  0  0  0  0  0  0  0  0
   -1.5120   14.7750    1.6660 N   0  0  0  0  0  0  0  0  0  0  0  0
   -3.8380   15.2310    1.3380 N   0  0  0  0  0  0  0  0  0  0  0  0
   -4.5700   15.2970    0.1650 C   0  0  0  0  0  0  0  0  0  0  0  0
    0.8440   11.1200   -4.8150 C   0  0  0  0  0  0  0  0  0  0  0  0
    1.6240   11.5300   -6.0630 C   0  0  0  0  0  0  0  0  0  0  0  0
    1.0180   10.8670   -7.2940 C   0  0  0  0  0  0  0  0  0  0  0  0
   -0.3660   10.5620   -6.9830 N   0  0  0  0  0  0  0  0  0  0  0  0
   -0.9440    9.4690   -7.3170 C   0  0  0  0  0  0  0  0  0  0  0  0
   -0.3340    8.4500   -8.0180 N   0  0  0  0  0  0  0  0  0  0  0  0
   -2.3900    9.1990   -6.9410 C   0  0  0  0  0  0  0  0  0  0  0  0
    0.6870    8.4810   -8.9880 C   0  0  0  0  0  0  0  0  0  0  0  0
    1.8700    7.7560   -8.8750 C   0  0  0  0  0  0  0  0  0  0  0  0
    0.5250    9.2760  -10.1380 C   0  0  0  0  0  0  0  0  0  0  0  0
    2.8560    7.8110   -9.8670 C   0  0  0  0  0  0  0  0  0  0  0  0
    1.5140    9.3320  -11.1320 C   0  0  0  0  0  0  0  0  0  0  0  0
    2.6990    8.5950  -11.0090 C   0  0  0  0  0  0  0  0  0  0  0  0
    3.6790    8.6550  -12.0120 N   0  0  0  0  0  0  0  0  0  0  0  0
    3.9350    9.5560  -13.0590 C   0  0  0  0  0  0  0  0  0  0  0  0
    3.1890   10.7210  -13.2800 C   0  0  0  0  0  0  0  0  0  0  0  0
    4.9940    9.2780  -13.9280 C   0  0  0  0  0  0  0  0  0  0  0  0
    3.4960   11.5760  -14.3360 C   0  0  0  0  0  0  0  0  0  0  0  0
    5.3050   10.1310  -14.9860 C   0  0  0  0  0  0  0  0  0  0  0  0
    4.5520   11.2840  -15.1900 C   0  0  0  0  0  0  0  0  0  0  0  0
  1  2  1  0
  2  3  1  0
  2  4  1  0
  3  5  1  0
  4  6  2  0
  4  7  1  0
  5  8  1  0
  6  9  1  0
  7 10  2  0
  6 11  1  0
  8 12  2  0
  8 13  1  0
  9 14  1  0
 10 14  1  0
  9 15  2  0
 11 16  2  0
 15 16  1  0
 13 17  1  0
 17 18  1  0
 18 19  1  0
 19 20  1  0
 20 21  2  3
 21 22  1  0
 21 23  1  0
 22 24  1  0
 24 25  2  0
 24 26  1  0
 25 27  1  0
 26 28  2  0
 27 29  2  0
 28 29  1  0
 29 30  1  0
 30 31  1  0
 31 32  2  0
 31 33  1  0
 32 34  1  0
 33 35  2  0
 34 36  2  0
 35 36  1  0
M  END
