mac-x0375-mac-x0328
     RDKit          3D

 23 24  0  0  0  0  0  0  0  0999 V2000
    1.9040   12.8520   -2.9150 O   0  0  0  0  0  0  0  0  0  0  0  0
    0.9410   11.9960   -3.3190 C   0  0  0  0  0  0  0  0  0  0  0  0
    0.7780   10.9060   -2.7990 O   0  0  0  0  0  0  0  0  0  0  0  0
    0.0690   12.4970   -4.4590 C   0  0  2  0  0  0  0  0  0  0  0  0
    0.3860   11.7980   -5.6800 O   0  0  0  0  0  0  0  0  0  0  0  0
    0.1280   14.0180   -4.6230 C   0  0  0  0  0  0  0  0  0  0  0  0
   -1.2850   14.5980   -4.7740 C   0  0  0  0  0  0  0  0  0  0  0  0
   -0.6180   10.9090   -5.9480 C   0  0  0  0  0  0  0  0  0  0  0  0
   -1.7430   15.3740   -3.6490 O   0  0  0  0  0  0  0  0  0  0  0  0
   -0.3510    9.8350   -6.7990 C   0  0  0  0  0  0  0  0  0  0  0  0
   -1.8860   11.0560   -5.3890 C   0  0  0  0  0  0  0  0  0  0  0  0
   -1.8630   14.8000   -2.4220 C   0  0  0  0  0  0  0  0  0  0  0  0
   -1.3610    8.9110   -7.0770 C   0  0  0  0  0  0  0  0  0  0  0  0
   -2.8880   10.1360   -5.6680 C   0  0  0  0  0  0  0  0  0  0  0  0
   -0.9680   14.2750   -1.7940 O   0  0  0  0  0  0  0  0  0  0  0  0
   -2.6250    9.0620   -6.5130 C   0  0  0  0  0  0  0  0  0  0  0  0
   -3.2560   14.9210   -1.8950 C   0  0  0  0  0  0  0  0  0  0  0  0
   -3.5180   14.9110   -0.5170 C   0  0  0  0  0  0  0  0  0  0  0  0
   -4.3210   15.0430   -2.7980 C   0  0  0  0  0  0  0  0  0  0  0  0
   -4.8300   15.0210   -0.0480 C   0  0  0  0  0  0  0  0  0  0  0  0
   -5.6350   15.1520   -2.3240 C   0  0  0  0  0  0  0  0  0  0  0  0
   -5.8740   15.1390   -0.9560 C   0  0  0  0  0  0  0  0  0  0  0  0
   -7.1410   15.2410   -0.4660 O   0  0  0  0  0  0  0  0  0  0  0  0
  1  2  1  0
  2  3  2  0
  2  4  1  0
  4  5  1  0
  4  6  1  6
  6  7  1  0
  5  8  1  0
  7  9  1  0
  8 10  2  0
  8 11  1  0
  9 12  1  0
 10 13  1  0
 11 14  2  0
 12 15  2  0
 13 16  2  0
 14 16  1  0
 12 17  1  0
 17 18  2  0
 17 19  1  0
 18 20  1  0
 19 21  2  0
 20 22  2  0
 21 22  1  0
 22 23  1  0
M  END
