mac-x0380-mac-x0179
     RDKit          3D

 31 34  0  0  0  0  0  0  0  0999 V2000
   -1.3590   14.9560   -2.6330 O   0  0  0  0  0  0  0  0  0  0  0  0
   -2.7390   14.7870   -2.8770 C   0  0  0  0  0  0  0  0  0  0  0  0
   -3.1050   15.8320   -3.7560 O   0  0  0  0  0  0  0  0  0  0  0  0
   -2.9780   13.4650   -3.6340 C   0  0  0  0  0  0  0  0  0  0  0  0
   -3.5450   14.8680   -1.5870 C   0  0  0  0  0  0  0  0  0  0  0  0
   -2.0560   12.3170   -3.2120 C   0  0  0  0  0  0  0  0  0  0  0  0
   -4.9430   14.9360   -1.6580 C   0  0  0  0  0  0  0  0  0  0  0  0
   -2.9470   14.8650   -0.3130 C   0  0  0  0  0  0  0  0  0  0  0  0
   -2.0210   11.3520   -4.3060 N   0  0  0  0  0  0  0  0  0  0  0  0
   -5.7260   14.9860   -0.5050 C   0  0  0  0  0  0  0  0  0  0  0  0
   -3.7240   14.9180    0.8490 C   0  0  0  0  0  0  0  0  0  0  0  0
   -5.1180   14.9710    0.7540 C   0  0  0  0  0  0  0  0  0  0  0  0
   -7.4900   15.0550   -0.6830 S   0  0  0  0  0  0  0  0  0  0  0  0
   -1.1180   11.2750   -5.2060 C   0  0  0  0  0  0  0  0  0  0  0  0
   -5.8700   15.0010    1.9440 N   0  0  0  0  0  0  0  0  0  0  0  0
   -7.8770   14.1090    0.7980 C   0  0  0  0  0  0  0  0  0  0  0  0
    0.0260   11.9990   -5.4350 N   0  0  0  0  0  0  0  0  0  0  0  0
   -1.1980   10.2610   -6.2690 C   0  0  0  0  0  0  0  0  0  0  0  0
    0.7880   12.8060   -4.4890 C   0  0  0  0  0  0  0  0  0  0  0  0
   -7.1960   14.6520    2.0310 C   0  0  0  0  0  0  0  0  0  0  0  0
    0.7030   11.4910   -6.5140 C   0  0  0  0  0  0  0  0  0  0  0  0
   -0.0860   10.4000   -7.0670 C   0  0  0  0  0  0  0  0  0  0  0  0
   -2.1590    9.2970   -6.5230 C   0  0  0  0  0  0  0  0  0  0  0  0
   -7.8150   14.7940    3.0890 O   0  0  0  0  0  0  0  0  0  0  0  0
    1.0220   12.1180   -3.1490 C   0  0  0  0  0  0  0  0  0  0  0  0
    1.7690   11.8410   -6.9380 O   0  0  0  0  0  0  0  0  0  0  0  0
    0.1450    9.5940   -8.1670 C   0  0  0  0  0  0  0  0  0  0  0  0
   -1.9540    8.4640   -7.6310 C   0  0  0  0  0  0  0  0  0  0  0  0
    1.6250   12.8630   -2.2030 O   0  0  0  0  0  0  0  0  0  0  0  0
    0.6870   10.9620   -2.9290 O   0  0  0  0  0  0  0  0  0  0  0  0
   -0.8130    8.6120   -8.4450 C   0  0  0  0  0  0  0  0  0  0  0  0
  2  1  1  0
  2  3  1  0
  2  4  1  0
  2  5  1  0
  4  6  1  0
  5  7  2  0
  5  8  1  0
  6  9  1  0
  7 10  1  0
  8 11  2  0
 10 12  2  0
 11 12  1  0
 10 13  1  0
  9 14  2  3
 12 15  1  0
 13 16  1  0
 14 17  1  0
 14 18  1  0
 17 19  1  0
 15 20  1  0
 16 20  1  0
 17 21  1  0
 18 22  2  0
 21 22  1  0
 18 23  1  0
 20 24  2  0
 19 25  1  0
 21 26  2  0
 22 27  1  0
 23 28  2  0
 25 29  1  0
 25 30  2  0
 27 31  2  0
 28 31  1  0
M  END
