mac-x0212-mac-x0161
     RDKit          3D

 25 27  0  0  0  0  0  0  0  0999 V2000
   -6.7540   12.6210    1.2480 C   0  0  0  0  0  0  0  0  0  0  0  0
   -7.0340   14.3560    0.9520 S   0  0  0  0  0  0  0  0  0  0  0  0
   -7.8300   14.8680    2.0490 O   0  0  0  0  0  0  0  0  0  0  0  0
   -7.4480   14.5540   -0.4150 O   0  0  0  0  0  0  0  0  0  0  0  0
   -5.5000   14.9590    1.1760 N   0  0  0  0  0  0  0  0  0  0  0  0
   -4.6560   15.5160    0.1020 C   0  0  1  0  0  0  0  0  0  0  0  0
   -3.1960   15.5230    0.5930 C   0  0  0  0  0  0  0  0  0  0  0  0
   -4.8940   14.7280   -1.1500 C   0  0  0  0  0  0  0  0  0  0  0  0
   -2.0810   15.0660   -0.3940 C   0  0  2  0  0  0  0  0  0  0  0  0
   -3.9510   14.4970   -2.0690 C   0  0  0  0  0  0  0  0  0  0  0  0
   -2.5460   15.0310   -1.9060 C   0  0  2  0  0  0  0  0  0  0  0  0
   -1.5820   13.7690    0.1540 N   0  0  0  0  0  0  0  0  0  0  0  0
   -0.8090   15.9240   -0.2310 C   0  0  0  0  0  0  0  0  0  0  0  0
   -1.5700   14.6630   -3.1010 C   0  0  0  0  0  0  0  0  0  0  0  0
    0.2640   14.9710    0.0080 N   0  0  0  0  0  0  0  0  0  0  0  0
   -0.3920   14.0890    0.9050 C   0  0  0  0  0  0  0  0  0  0  0  0
   -0.3230   15.2880   -2.8910 O   0  0  0  0  0  0  0  0  0  0  0  0
   -2.0410   15.2010   -4.3190 O   0  0  0  0  0  0  0  0  0  0  0  0
   -1.1430   13.2760   -3.4160 C   0  0  0  0  0  0  0  0  0  0  0  0
   -1.4380   12.4330   -4.4550 C   0  0  0  0  0  0  0  0  0  0  0  0
   -0.2780   12.6500   -2.5700 O   0  0  0  0  0  0  0  0  0  0  0  0
    0.0040   11.3810   -3.0470 N   0  0  0  0  0  0  0  0  0  0  0  0
   -0.7040   11.2800   -4.1770 C   0  0  0  0  0  0  0  0  0  0  0  0
   -0.6910   10.1750   -4.9470 O   0  0  0  0  0  0  0  0  0  0  0  0
   -1.6640   10.1890   -5.9850 C   0  0  0  0  0  0  0  0  0  0  0  0
  1  2  1  0
  2  3  2  0
  2  4  2  0
  2  5  1  0
  6  5  1  1
  6  7  1  0
  6  8  1  0
  9  7  1  1
  8 10  2  0
  9 11  1  0
 10 11  1  0
  9 12  1  0
  9 13  1  0
 11 14  1  6
 13 15  1  0
 12 16  1  0
 15 16  1  0
 14 17  1  0
 14 18  1  0
 14 19  1  0
 19 20  2  0
 19 21  1  0
 21 22  1  0
 20 23  1  0
 22 23  2  0
 23 24  1  0
 24 25  1  0
M  END
