mac-x0138-mac-x0116
     RDKit          3D

 18 20  0  0  0  0  0  0  0  0999 V2000
   -1.2420   14.7180   -3.3280 C   0  0  0  0  0  0  0  0  0  0  0  0
   -2.2310   14.8780   -2.2940 N   0  0  0  0  0  0  0  0  0  0  0  0
   -3.5470   15.2030   -2.4680 C   0  0  0  0  0  0  0  0  0  0  0  0
   -2.0100   14.7310   -0.9510 C   0  0  0  0  0  0  0  0  0  0  0  0
   -4.1890   15.2780   -1.3190 N   0  0  0  0  0  0  0  0  0  0  0  0
   -3.2450   14.9870   -0.3570 C   0  0  0  0  0  0  0  0  0  0  0  0
   -0.8580   14.4140   -0.3350 N   0  0  0  0  0  0  0  0  0  0  0  0
   -3.2900   14.9040    1.0530 C   0  0  0  0  0  0  0  0  0  0  0  0
   -1.0250   14.3640    0.9950 C   0  0  0  0  0  0  0  0  0  0  0  0
   -4.4430   15.1350    1.8230 N   0  0  0  0  0  0  0  0  0  0  0  0
    0.0350   14.0450    1.7940 N   0  0  0  0  0  0  0  0  0  0  0  0
   -2.1390   14.5870    1.6850 N   0  0  0  0  0  0  0  0  0  0  0  0
   -5.7640   14.7110    1.3640 C   0  0  0  0  0  0  0  0  0  0  0  0
   -6.2070   13.2910    1.5110 C   0  0  0  0  0  0  0  0  0  0  0  0
   -6.1750   12.5180    0.3860 O   0  0  0  0  0  0  0  0  0  0  0  0
   -6.6780   12.5450    2.5750 C   0  0  0  0  0  0  0  0  0  0  0  0
   -6.9500   11.2600    2.0750 C   0  0  0  0  0  0  0  0  0  0  0  0
   -6.6280   11.2920    0.7400 C   0  0  0  0  0  0  0  0  0  0  0  0
  1  2  1  0
  2  3  1  0
  2  4  1  0
  3  5  2  0
  4  6  2  0
  5  6  1  0
  4  7  1  0
  6  8  1  0
  7  9  2  0
  8 10  1  0
  9 11  1  0
  8 12  2  0
  9 12  1  0
 10 13  1  0
 13 14  1  0
 14 15  1  0
 14 16  2  0
 16 17  1  0
 15 18  1  0
 17 18  2  0
M  END
