mac-x0306-mac-x0212
     RDKit          3D

 19 20  0  0  0  0  0  0  0  0999 V2000
   -6.2660   11.7790    2.5210 C   0  0  0  0  0  0  0  0  0  0  0  0
   -6.8740   13.1400    1.5760 S   0  0  0  0  0  0  0  0  0  0  0  0
   -7.7110   13.9580    2.4330 O   0  0  0  0  0  0  0  0  0  0  0  0
   -7.3680   12.6230    0.3180 O   0  0  0  0  0  0  0  0  0  0  0  0
   -5.4700   14.0030    1.1970 N   0  0  0  0  0  0  0  0  0  0  0  0
   -4.9380   13.9650   -0.1990 C   0  0  2  0  0  0  0  0  0  0  0  0
   -3.6970   14.8870   -0.3490 C   0  0  0  0  0  0  0  0  0  0  0  0
   -6.0350   14.2260   -1.2850 C   0  0  1  0  0  0  0  0  0  0  0  0
   -7.3650   14.7150   -0.7510 C   0  0  0  0  0  0  0  0  0  0  0  0
   -5.5240   15.0380   -2.4480 C   0  0  0  0  0  0  0  0  0  0  0  0
   -3.2570   15.0400   -1.7480 N   0  0  0  0  0  0  0  0  0  0  0  0
   -2.0960   14.4890   -2.3050 C   0  0  0  0  0  0  0  0  0  0  0  0
   -7.5930   14.9840    0.5690 N   0  0  0  0  0  0  0  0  0  0  0  0
   -8.4620   14.9380   -1.4500 N   0  0  0  0  0  0  0  0  0  0  0  0
   -4.2500   15.3820   -2.6250 C   0  0  0  0  0  0  0  0  0  0  0  0
   -1.1760   13.9770   -1.6810 O   0  0  0  0  0  0  0  0  0  0  0  0
   -2.0350   14.5580   -3.6570 O   0  0  0  0  0  0  0  0  0  0  0  0
   -9.4040   15.3600   -0.5500 C   0  0  0  0  0  0  0  0  0  0  0  0
   -8.8860   15.3950    0.7160 C   0  0  0  0  0  0  0  0  0  0  0  0
  1  2  1  0
  2  3  2  0
  2  4  2  0
  2  5  1  0
  6  5  1  1
  6  7  1  0
  6  8  1  0
  8  9  1  1
  8 10  1  0
  7 11  1  0
 11 12  1  0
  9 13  1  0
  9 14  2  0
 10 15  2  0
 11 15  1  0
 12 16  2  0
 12 17  1  0
 14 18  1  0
 13 19  1  0
 18 19  2  0
M  END
