mac-x0358-mac-x0379
     RDKit          3D

 20 21  0  0  0  0  0  0  0  0999 V2000
    1.3980   12.8490   -2.1070 O   0  0  0  0  0  0  0  0  0  0  0  0
    0.6840   12.2330   -3.0760 C   0  0  0  0  0  0  0  0  0  0  0  0
    0.0830   11.1960   -2.8460 O   0  0  0  0  0  0  0  0  0  0  0  0
    0.7390   12.9720   -4.3880 C   0  0  0  0  0  0  0  0  0  0  0  0
   -0.6160   13.3880   -4.9470 C   0  0  0  0  0  0  0  0  0  0  0  0
   -1.3970   12.4490   -5.6350 C   0  0  0  0  0  0  0  0  0  0  0  0
   -1.1590   14.6910   -4.8140 C   0  0  0  0  0  0  0  0  0  0  0  0
   -0.9910   11.1550   -5.8120 O   0  0  0  0  0  0  0  0  0  0  0  0
   -2.6400   12.7750   -6.1800 C   0  0  0  0  0  0  0  0  0  0  0  0
   -2.4040   15.0120   -5.3700 C   0  0  0  0  0  0  0  0  0  0  0  0
   -0.4760   15.7890   -4.0710 C   0  0  0  0  0  0  0  0  0  0  0  0
   -3.1430   14.0630   -6.0520 C   0  0  0  0  0  0  0  0  0  0  0  0
   -0.6910   15.4370   -2.5940 C   0  0  1  0  0  0  0  0  0  0  0  0
   -0.0480   16.3720   -1.7610 O   0  0  0  0  0  0  0  0  0  0  0  0
   -2.1310   15.3570   -2.1490 C   0  0  0  0  0  0  0  0  0  0  0  0
   -3.2940   15.2230   -2.8950 C   0  0  0  0  0  0  0  0  0  0  0  0
   -2.5580   15.4190   -0.4840 S   0  0  0  0  0  0  0  0  0  0  0  0
   -4.2160   15.2600   -0.8950 C   0  0  0  0  0  0  0  0  0  0  0  0
   -4.4720   15.1680   -2.1760 N   0  0  0  0  0  0  0  0  0  0  0  0
   -5.2470   15.2310    0.1650 C   0  0  0  0  0  0  0  0  0  0  0  0
  1  2  1  0
  2  3  2  0
  2  4  1  0
  4  5  1  0
  5  6  2  0
  5  7  1  0
  6  8  1  0
  6  9  1  0
  7 10  2  0
  7 11  1  0
  9 12  2  0
 10 12  1  0
 11 13  1  0
 13 14  1  1
 13 15  1  0
 15 16  2  0
 15 17  1  0
 17 18  1  0
 16 19  1  0
 18 19  2  0
 18 20  1  0
M  END
