mac-x0161-mac-x0371
     RDKit          3D

 29 32  0  0  0  0  0  0  0  0999 V2000
   -5.0010   14.9020    1.2030 N   0  0  0  0  0  0  0  0  0  0  0  0
   -4.0650   14.1630    0.3750 C   0  0  2  0  0  0  0  0  0  0  0  0
   -2.6680   14.7950    0.3770 C   0  0  2  0  0  0  0  0  0  0  0  0
   -4.6680   14.1870   -0.9390 N   0  0  0  0  0  0  0  0  0  0  0  0
   -4.0390   15.1060   -1.9000 C   0  0  0  0  0  0  0  0  0  0  0  0
   -1.9760   14.3190   -0.9010 C   0  0  1  0  0  0  0  0  0  0  0  0
   -1.7080   14.4060    1.4390 N   0  0  0  0  0  0  0  0  0  0  0  0
   -2.6230   14.8110   -2.1100 N   0  0  0  0  0  0  0  0  0  0  0  0
   -0.6720   14.9070   -0.6140 N   0  0  0  0  0  0  0  0  0  0  0  0
   -0.4060   14.5220    0.7700 C   0  0  0  0  0  0  0  0  0  0  0  0
   -2.1310   14.3830   -3.4630 C   0  0  2  0  0  0  0  0  0  0  0  0
   -2.3540   12.9510   -3.8390 C   0  0  0  0  0  0  0  0  0  0  0  0
   -0.6590   14.6580   -3.7570 C   0  0  0  0  0  0  0  0  0  0  0  0
   -2.1700   12.3260   -5.0470 C   0  0  0  0  0  0  0  0  0  0  0  0
   -2.7810   12.0420   -2.9230 O   0  0  0  0  0  0  0  0  0  0  0  0
    0.3210   13.6020   -3.7990 C   0  0  0  0  0  0  0  0  0  0  0  0
   -0.2440   15.9850   -3.9970 C   0  0  0  0  0  0  0  0  0  0  0  0
    0.0190   12.1240   -3.6120 C   0  0  0  0  0  0  0  0  0  0  0  0
   -2.8810   10.7950   -3.5310 N   0  0  0  0  0  0  0  0  0  0  0  0
   -2.5050   10.9970   -4.7950 C   0  0  0  0  0  0  0  0  0  0  0  0
    1.0680   16.2890   -4.2380 C   0  0  0  0  0  0  0  0  0  0  0  0
    1.6400   13.9650   -4.0430 C   0  0  0  0  0  0  0  0  0  0  0  0
   -2.4590   10.0060   -5.7050 O   0  0  0  0  0  0  0  0  0  0  0  0
    2.9350   12.8400   -4.1090 Cl  0  0  0  0  0  0  0  0  0  0  0  0
    0.3130   11.4430   -2.3060 C   0  0  0  0  0  0  0  0  0  0  0  0
    1.9870   15.2700   -4.2490 C   0  0  0  0  0  0  0  0  0  0  0  0
   -1.1450    9.6540   -6.1090 C   0  0  0  0  0  0  0  0  0  0  0  0
    0.5310   12.2320   -1.2340 O   0  0  0  0  0  0  0  0  0  0  0  0
    0.3220   10.2260   -2.2260 O   0  0  0  0  0  0  0  0  0  0  0  0
  2  1  1  1
  2  3  1  0
  2  4  1  0
  4  5  1  0
  3  6  1  0
  3  7  1  1
  5  8  1  0
  6  8  1  0
  6  9  1  1
  7 10  1  0
  9 10  1  0
  8 11  1  0
 11 12  1  1
 11 13  1  0
 12 14  2  0
 12 15  1  0
 13 16  2  0
 13 17  1  0
 16 18  1  0
 15 19  1  0
 14 20  1  0
 19 20  2  0
 17 21  2  0
 16 22  1  0
 20 23  1  0
 22 24  1  0
 18 25  1  0
 21 26  1  0
 22 26  2  0
 23 27  1  0
 25 28  1  0
 25 29  2  0
M  END
