mac-x0453-mac-x0375
     RDKit          3D

 22 23  0  0  0  0  0  0  0  0999 V2000
   -6.9690   14.1210    2.3670 N   0  0  0  0  0  0  0  0  0  0  0  0
   -6.0100   13.8600    1.2920 C   0  0  0  0  0  0  0  0  0  0  0  0
   -4.7990   14.7990    1.3410 C   0  0  0  0  0  0  0  0  0  0  0  0
   -4.0380   14.7940    0.0710 C   0  0  0  0  0  0  0  0  0  0  0  0
   -2.7350   14.4060   -0.1400 C   0  0  0  0  0  0  0  0  0  0  0  0
   -4.6130   15.2040   -1.1110 N   0  0  0  0  0  0  0  0  0  0  0  0
   -2.5200   14.5830   -1.4760 N   0  0  0  0  0  0  0  0  0  0  0  0
   -3.6780   15.0660   -2.0200 C   0  0  0  0  0  0  0  0  0  0  0  0
   -1.2930   14.3090   -2.2030 C   0  0  0  0  0  0  0  0  0  0  0  0
   -0.2250   13.5590   -1.4000 C   0  0  0  0  0  0  0  0  0  0  0  0
    1.2000   13.8630   -1.8660 C   0  0  0  0  0  0  0  0  0  0  0  0
    1.7860   12.7520   -2.5680 O   0  0  0  0  0  0  0  0  0  0  0  0
    0.9960   12.0020   -3.3890 C   0  0  0  0  0  0  0  0  0  0  0  0
    0.4500   10.9590   -3.0460 O   0  0  0  0  0  0  0  0  0  0  0  0
    0.8870   12.5960   -4.7940 C   0  0  0  0  0  0  0  0  0  0  0  0
    0.7240   11.6640   -5.8560 O   0  0  0  0  0  0  0  0  0  0  0  0
   -0.4320   10.9310   -5.9210 C   0  0  0  0  0  0  0  0  0  0  0  0
   -0.3530    9.7940   -6.7340 C   0  0  0  0  0  0  0  0  0  0  0  0
   -1.6290   11.2170   -5.2680 C   0  0  0  0  0  0  0  0  0  0  0  0
   -1.4560    8.9520   -6.8900 C   0  0  0  0  0  0  0  0  0  0  0  0
   -2.7340   10.3720   -5.4250 C   0  0  0  0  0  0  0  0  0  0  0  0
   -2.6470    9.2420   -6.2340 C   0  0  0  0  0  0  0  0  0  0  0  0
  1  2  1  0
  2  3  1  0
  3  4  1  0
  4  5  2  0
  4  6  1  0
  5  7  1  0
  6  8  2  0
  7  8  1  0
  7  9  1  0
  9 10  1  0
 10 11  1  0
 11 12  1  0
 12 13  1  0
 13 14  2  0
 13 15  1  0
 15 16  1  0
 16 17  1  0
 17 18  2  0
 17 19  1  0
 18 20  1  0
 19 21  2  0
 20 22  2  0
 21 22  1  0
M  END
