mac-x0360-mac-x0345
     RDKit          3D

 20 21  0  0  0  0  0  0  0  0999 V2000
   -7.3530   11.5020    1.4500 Cl  0  0  0  0  0  0  0  0  0  0  0  0
   -6.1340   11.6040    0.1810 C   0  0  0  0  0  0  0  0  0  0  0  0
   -6.0470   10.6650   -0.8080 C   0  0  0  0  0  0  0  0  0  0  0  0
   -5.2430   12.6470    0.1640 C   0  0  0  0  0  0  0  0  0  0  0  0
   -4.2950   12.7640   -0.8040 C   0  0  0  0  0  0  0  0  0  0  0  0
   -5.0590   10.7920   -1.7810 C   0  0  0  0  0  0  0  0  0  0  0  0
   -4.9330    9.5980   -3.0230 Cl  0  0  0  0  0  0  0  0  0  0  0  0
   -3.3000   14.2850   -0.6260 S   0  0  0  0  0  0  0  0  0  0  0  0
   -4.1680   11.8680   -1.7720 C   0  0  0  0  0  0  0  0  0  0  0  0
   -2.6610   15.0590   -1.8660 N   0  0  0  0  0  0  0  0  0  0  0  0
   -2.1600   14.1360    0.9240 O   0  0  0  0  0  0  0  0  0  0  0  0
   -4.8290   14.5950    0.1880 C   0  0  0  0  0  0  0  0  0  0  0  0
   -6.0820   14.8490    0.5610 C   0  0  0  0  0  0  0  0  0  0  0  0
   -4.9480   14.6930   -1.2200 C   0  0  0  0  0  0  0  0  0  0  0  0
   -6.2370   14.7740    2.4350 Br  0  0  0  0  0  0  0  0  0  0  0  0
   -7.2440   15.1030   -0.1660 C   0  0  0  0  0  0  0  0  0  0  0  0
   -6.0590   14.9630   -1.9960 C   0  0  0  0  0  0  0  0  0  0  0  0
   -8.4770   15.2740    0.6240 C   0  0  0  0  0  0  0  0  0  0  0  0
   -5.9490   15.0120   -3.4030 N   0  0  0  0  0  0  0  0  0  0  0  0
   -7.2040   15.1610   -1.4430 N   0  0  0  0  0  0  0  0  0  0  0  0
  1  2  1  0
  2  3  2  0
  2  4  1  0
  4  5  2  0
  3  6  1  0
  6  7  1  0
  5  8  1  0
  5  9  1  0
  6  9  2  0
  8 10  1  0
  8 11  2  0
  8 12  1  0
 12 13  2  0
 12 14  1  0
 13 15  1  0
 13 16  1  0
 14 17  2  0
 16 18  1  0
 17 19  1  0
 16 20  2  0
 17 20  1  0
M  END
