mac-x0411-mac-x0116
     RDKit          3D

 31 34  0  0  0  0  0  0  0  0999 V2000
    0.7180    8.7840   -7.7810 Cl  0  0  0  0  0  0  0  0  0  0  0  0
   -0.5760    9.4670   -6.8590 C   0  0  0  0  0  0  0  0  0  0  0  0
   -0.4880   10.7090   -6.1920 C   0  0  0  0  0  0  0  0  0  0  0  0
   -1.7490    8.7110   -6.8060 C   0  0  0  0  0  0  0  0  0  0  0  0
    0.6720   11.4650   -6.2310 O   0  0  0  0  0  0  0  0  0  0  0  0
   -1.6230   11.1610   -5.4870 C   0  0  0  0  0  0  0  0  0  0  0  0
   -2.8520    9.1700   -6.1010 C   0  0  0  0  0  0  0  0  0  0  0  0
   -1.6740   12.6620   -4.6400 Cl  0  0  0  0  0  0  0  0  0  0  0  0
    0.9180   12.4210   -5.1840 C   0  0  0  0  0  0  0  0  0  0  0  0
   -2.7910   10.3930   -5.4450 C   0  0  0  0  0  0  0  0  0  0  0  0
    0.7790   11.8420   -3.7750 C   0  0  0  0  0  0  0  0  0  0  0  0
    1.2060   12.7320   -2.8390 O   0  0  0  0  0  0  0  0  0  0  0  0
    0.3430   10.7290   -3.5030 O   0  0  0  0  0  0  0  0  0  0  0  0
    0.1950   13.6760   -2.4500 C   0  0  0  0  0  0  0  0  0  0  0  0
    0.5990   14.3350   -1.1410 C   0  0  0  0  0  0  0  0  0  0  0  0
   -0.5140   14.4770   -0.2290 N   0  0  0  0  0  0  0  0  0  0  0  0
   -1.8170   14.7090   -0.5660 C   0  0  0  0  0  0  0  0  0  0  0  0
   -0.4520   14.4070    1.1390 C   0  0  0  0  0  0  0  0  0  0  0  0
   -2.3440   14.8510   -1.7970 N   0  0  0  0  0  0  0  0  0  0  0  0
   -2.4850   14.7740    0.6440 C   0  0  0  0  0  0  0  0  0  0  0  0
   -1.6200   14.5780    1.6980 N   0  0  0  0  0  0  0  0  0  0  0  0
   -3.6690   15.0810   -1.7230 C   0  0  0  0  0  0  0  0  0  0  0  0
   -3.8640   15.0190    0.6040 C   0  0  0  0  0  0  0  0  0  0  0  0
   -4.6350   15.1110    1.7670 N   0  0  0  0  0  0  0  0  0  0  0  0
   -4.4400   15.1730   -0.6220 N   0  0  0  0  0  0  0  0  0  0  0  0
   -6.0290   14.7150    1.6840 C   0  0  0  0  0  0  0  0  0  0  0  0
   -6.3810   13.2720    1.7010 C   0  0  0  0  0  0  0  0  0  0  0  0
   -6.2860   12.5930    0.5190 O   0  0  0  0  0  0  0  0  0  0  0  0
   -6.8150   12.4350    2.6990 C   0  0  0  0  0  0  0  0  0  0  0  0
   -7.0050   11.1780    2.1040 C   0  0  0  0  0  0  0  0  0  0  0  0
   -6.6700   11.3230    0.7790 C   0  0  0  0  0  0  0  0  0  0  0  0
  1  2  1  0
  2  3  2  0
  2  4  1  0
  3  5  1  0
  3  6  1  0
  4  7  2  0
  6  8  1  0
  5  9  1  0
  6 10  2  0
  7 10  1  0
  9 11  1  0
 11 12  1  0
 11 13  2  0
 12 14  1  0
 14 15  1  0
 15 16  1  0
 16 17  1  0
 16 18  1  0
 17 19  2  0
 17 20  1  0
 18 21  2  0
 20 21  1  0
 19 22  1  0
 20 23  2  0
 23 24  1  0
 22 25  2  0
 23 25  1  0
 24 26  1  0
 26 27  1  0
 27 28  1  0
 27 29  2  0
 29 30  1  0
 28 31  1  0
 30 31  2  0
M  END
