mac-x0148-mac-x0132
     RDKit          3D

 29 34  0  0  0  0  0  0  0  0999 V2000
   -4.1680   14.9230    1.8870 N   0  0  0  0  0  0  0  0  0  0  0  0
   -5.4620   14.8280    1.3030 C   0  0  0  0  0  0  0  0  0  0  0  0
   -6.6060   14.5880    1.9670 N   0  0  0  0  0  0  0  0  0  0  0  0
   -3.3900   14.5110    0.8290 N   0  0  0  0  0  0  0  0  0  0  0  0
   -2.0480   14.6350    0.5590 C   0  0  0  0  0  0  0  0  0  0  0  0
   -3.9940   13.8520   -0.2140 C   0  0  0  0  0  0  0  0  0  0  0  0
   -5.4230   14.9790   -0.0920 C   0  0  0  0  0  0  0  0  0  0  0  0
   -1.1340   15.1920    1.3540 N   0  0  0  0  0  0  0  0  0  0  0  0
   -1.8300   14.0800   -0.7040 C   0  0  0  0  0  0  0  0  0  0  0  0
   -3.0620   13.5800   -1.1680 C   0  0  0  0  0  0  0  0  0  0  0  0
   -6.6260   14.8260   -0.7670 C   0  0  0  0  0  0  0  0  0  0  0  0
   -7.7080   14.4830    1.2070 C   0  0  0  0  0  0  0  0  0  0  0  0
   -4.2380   15.2630   -0.8240 C   0  0  0  0  0  0  0  0  0  0  0  0
    0.0710   15.1620    0.7500 C   0  0  0  0  0  0  0  0  0  0  0  0
   -0.5440   14.1160   -1.2390 C   0  0  0  0  0  0  0  0  0  0  0  0
   -7.7750   14.5830   -0.1310 N   0  0  0  0  0  0  0  0  0  0  0  0
   -6.6120   14.9210   -2.1480 C   0  0  0  0  0  0  0  0  0  0  0  0
   -4.2530   15.3550   -2.1940 C   0  0  0  0  0  0  0  0  0  0  0  0
   -0.2330   13.6010   -2.5200 N   0  0  0  0  0  0  0  0  0  0  0  0
    0.4070   14.6730   -0.4660 N   0  0  0  0  0  0  0  0  0  0  0  0
   -5.4420   15.1680   -2.8590 C   0  0  0  0  0  0  0  0  0  0  0  0
   -0.7360   14.3360   -3.7430 C   0  0  2  0  0  0  0  0  0  0  0  0
    0.1530   12.1850   -2.5190 C   0  0  0  0  0  0  0  0  0  0  0  0
   -2.2350   14.6870   -3.7650 C   0  0  0  0  0  0  0  0  0  0  0  0
   -0.5520   13.5810   -5.0910 C   0  0  2  0  0  0  0  0  0  0  0  0
   -0.3160   11.4600   -3.7680 C   0  0  0  0  0  0  0  0  0  0  0  0
   -1.9770   13.4670   -5.6240 C   0  0  0  0  0  0  0  0  0  0  0  0
   -2.6560   14.6130   -5.1330 O   0  0  0  0  0  0  0  0  0  0  0  0
    0.1280   12.2120   -5.0040 C   0  0  0  0  0  0  0  0  0  0  0  0
  1  2  1  0
  2  3  2  0
  1  4  1  0
  4  5  1  0
  4  6  1  0
  2  7  1  0
  5  8  2  0
  5  9  1  0
  6 10  2  0
  9 10  1  0
  7 11  2  0
  3 12  1  0
  7 13  1  0
  8 14  1  0
  9 15  2  0
 11 16  1  0
 12 16  2  0
 11 17  1  0
 13 18  2  0
 15 19  1  0
 14 20  2  0
 15 20  1  0
 17 21  2  0
 18 21  1  0
 19 22  1  0
 19 23  1  0
 22 24  1  1
 22 25  1  0
 23 26  1  0
 25 27  1  1
 24 28  1  0
 27 28  1  0
 25 29  1  0
 26 29  1  0
M  END
