mac-x0357-diamond-x0742_0_A
     RDKit          3D

 27 30  0  0  0  0  0  0  0  0999 V2000
    2.4640   13.0770   -4.2550 C   0  0  0  0  0  0  0  0  0  0  0  0
    1.1520   12.5130   -4.7290 C   0  0  0  0  0  0  0  0  0  0  0  0
    1.0170   11.9840   -6.0150 C   0  0  0  0  0  0  0  0  0  0  0  0
   -0.0010   12.4750   -3.9300 C   0  0  0  0  0  0  0  0  0  0  0  0
    2.0430   11.9480   -6.8710 O   0  0  0  0  0  0  0  0  0  0  0  0
   -0.1360   12.9510   -2.5420 C   0  0  0  0  0  0  0  0  0  0  0  0
   -1.2070   11.9340   -4.4200 C   0  0  0  0  0  0  0  0  0  0  0  0
   -0.1730   11.4520   -6.5060 C   0  0  0  0  0  0  0  0  0  0  0  0
   -0.8650   13.9650   -2.2360 N   0  0  0  0  0  0  0  0  0  0  0  0
    0.5230   12.1860   -1.6270 O   0  0  0  0  0  0  0  0  0  0  0  0
   -1.2940   11.4250   -5.7050 C   0  0  0  0  0  0  0  0  0  0  0  0
   -1.0190   14.1470   -0.8660 C   0  0  0  0  0  0  0  0  0  0  0  0
    0.0690   14.2870   -0.0280 C   0  0  0  0  0  0  0  0  0  0  0  0
   -2.3120   14.1600   -0.3460 C   0  0  0  0  0  0  0  0  0  0  0  0
   -3.5000   14.0240   -1.2780 C   0  0  0  0  0  0  0  0  0  0  0  0
   -0.1850   14.4230    1.3250 C   0  0  0  0  0  0  0  0  0  0  0  0
   -2.4470   14.2910    1.0320 C   0  0  0  0  0  0  0  0  0  0  0  0
   -4.8650   13.9240   -0.5810 C   0  0  1  0  0  0  0  0  0  0  0  0
   -1.4060   14.4170    1.8620 N   0  0  0  0  0  0  0  0  0  0  0  0
   -3.7770   14.2910    1.6930 C   0  0  0  0  0  0  0  0  0  0  0  0
   -5.3530   12.4550   -0.6320 C   0  0  0  0  0  0  0  0  0  0  0  0
   -4.8790   14.6810    0.7370 C   0  0  2  0  0  0  0  0  0  0  0  0
   -6.0020   14.7470   -1.2240 C   0  0  0  0  0  0  0  0  0  0  0  0
   -5.0150   11.7300   -1.5770 O   0  0  0  0  0  0  0  0  0  0  0  0
   -6.2490   11.8960    0.4380 C   0  0  0  0  0  0  0  0  0  0  0  0
   -6.3260   14.4830    1.1820 C   0  0  0  0  0  0  0  0  0  0  0  0
   -7.0930   14.6830   -0.1420 C   0  0  0  0  0  0  0  0  0  0  0  0
  1  2  1  0
  2  3  2  0
  2  4  1  0
  3  5  1  0
  4  6  1  0
  4  7  2  0
  3  8  1  0
  6  9  2  3
  6 10  1  0
  7 11  1  0
  8 11  2  0
  9 12  1  0
 12 13  2  0
 12 14  1  0
 14 15  1  0
 13 16  1  0
 14 17  2  0
 15 18  1  0
 16 19  2  0
 17 19  1  0
 17 20  1  0
 18 21  1  1
 18 22  1  0
 22 20  1  1
 18 23  1  0
 21 24  2  0
 21 25  1  0
 22 26  1  0
 23 27  1  0
 26 27  1  0
M  END
