mac-x0385-mac-x0576
     RDKit          3D

 15 16  0  0  0  0  0  0  0  0999 V2000
   -4.5670   15.8490   -1.5410 C   0  0  0  0  0  0  0  0  0  0  0  0
   -3.6710   14.8660   -0.8250 C   0  0  1  0  0  0  0  0  0  0  0  0
   -2.2890   14.8110   -1.4830 C   0  0  0  0  0  0  0  0  0  0  0  0
   -3.5250   15.1620    0.7120 C   0  0  2  0  0  0  0  0  0  0  0  0
   -4.4210   13.6280   -1.1070 N   0  0  0  0  0  0  0  0  0  0  0  0
   -3.8360   16.4560    1.1850 N   0  0  0  0  0  0  0  0  0  0  0  0
   -2.0560   15.0840   -2.6590 O   0  0  0  0  0  0  0  0  0  0  0  0
   -2.3190   14.8250    1.3910 N   0  0  0  0  0  0  0  0  0  0  0  0
   -1.2520   14.4290   -0.6800 N   0  0  0  0  0  0  0  0  0  0  0  0
   -4.5570   14.4680    1.3640 N   0  0  0  0  0  0  0  0  0  0  0  0
   -5.7920   13.8430   -0.6170 C   0  0  0  0  0  0  0  0  0  0  0  0
   -1.0880   14.9300    0.6510 C   0  0  2  0  0  0  0  0  0  0  0  0
   -5.7920   14.4050    0.7960 C   0  0  0  0  0  0  0  0  0  0  0  0
   -0.0990   14.0840    1.3910 C   0  0  0  0  0  0  0  0  0  0  0  0
   -6.8060   14.7580    1.3920 O   0  0  0  0  0  0  0  0  0  0  0  0
  2  1  1  6
  2  3  1  0
  2  4  1  0
  2  5  1  0
  4  6  1  6
  3  7  2  0
  4  8  1  0
  3  9  1  0
  4 10  1  0
  5 11  1  0
  8 12  1  0
  9 12  1  0
 10 13  1  0
 11 13  1  0
 12 14  1  1
 13 15  2  0
M  END
