mac-x0354-mac-x0231
     RDKit          3D

 27 30  0  0  0  0  0  0  0  0999 V2000
    0.6160   11.0320   -8.4560 C   0  0  0  0  0  0  0  0  0  0  0  0
    0.8690   11.4700   -7.1010 N   0  0  0  0  0  0  0  0  0  0  0  0
    1.8480   12.3410   -6.8500 N   0  0  0  0  0  0  0  0  0  0  0  0
    0.2040   11.0860   -5.9790 C   0  0  0  0  0  0  0  0  0  0  0  0
    1.8190   12.5300   -5.5580 C   0  0  0  0  0  0  0  0  0  0  0  0
    0.8100   11.7690   -4.9380 C   0  0  0  0  0  0  0  0  0  0  0  0
   -0.8790   10.1380   -6.0120 C   0  0  0  0  0  0  0  0  0  0  0  0
    0.6000   11.8050   -3.4690 C   0  0  0  0  0  0  0  0  0  0  0  0
   -0.6720    8.8800   -6.5750 C   0  0  0  0  0  0  0  0  0  0  0  0
   -2.1250   10.4670   -5.4870 C   0  0  0  0  0  0  0  0  0  0  0  0
    1.0550   10.6810   -2.7980 O   0  0  0  0  0  0  0  0  0  0  0  0
   -0.7390   11.7700   -3.0400 O   0  0  0  0  0  0  0  0  0  0  0  0
    1.3660   13.0040   -2.9770 C   0  0  0  0  0  0  0  0  0  0  0  0
   -1.7040    7.9520   -6.6110 C   0  0  0  0  0  0  0  0  0  0  0  0
   -3.1600    9.5390   -5.5210 C   0  0  0  0  0  0  0  0  0  0  0  0
   -2.9490    8.2820   -6.0840 C   0  0  0  0  0  0  0  0  0  0  0  0
    1.0070   14.2380   -3.7810 C   0  0  0  0  0  0  0  0  0  0  0  0
   -0.3660   14.4190   -4.3760 C   0  0  0  0  0  0  0  0  0  0  0  0
    1.9330   15.1350   -3.8870 N   0  0  0  0  0  0  0  0  0  0  0  0
   -0.6920   15.7080   -4.7720 C   0  0  0  0  0  0  0  0  0  0  0  0
    1.5970   16.2590   -4.5480 N   0  0  0  0  0  0  0  0  0  0  0  0
   -1.3260   13.4090   -4.5520 C   0  0  0  0  0  0  0  0  0  0  0  0
    0.3250   16.7480   -4.6090 C   0  0  0  0  0  0  0  0  0  0  0  0
   -1.9490   16.0140   -5.3150 C   0  0  0  0  0  0  0  0  0  0  0  0
   -2.5820   13.7050   -5.0990 C   0  0  0  0  0  0  0  0  0  0  0  0
    0.0480   17.9390   -4.5410 O   0  0  0  0  0  0  0  0  0  0  0  0
   -2.8950   15.0040   -5.4760 C   0  0  0  0  0  0  0  0  0  0  0  0
  1  2  1  0
  2  3  1  0
  2  4  1  0
  3  5  2  0
  4  6  2  0
  5  6  1  0
  4  7  1  0
  6  8  1  0
  7  9  2  0
  7 10  1  0
  8 11  1  0
  8 12  1  0
  8 13  1  0
  9 14  1  0
 10 15  2  0
 14 16  2  0
 15 16  1  0
 13 17  1  0
 17 18  1  0
 17 19  2  0
 18 20  2  0
 19 21  1  0
 18 22  1  0
 20 23  1  0
 21 23  1  0
 20 24  1  0
 22 25  2  0
 23 26  2  0
 24 27  2  0
 25 27  1  0
M  END
