mac-x0193-mac-x0180
     RDKit          3D

 28 29  0  0  0  0  0  0  0  0999 V2000
    0.3780   10.6780   -3.0510 O   0  0  0  0  0  0  0  0  0  0  0  0
    0.6790   11.9840   -3.2690 C   0  0  0  0  0  0  0  0  0  0  0  0
    0.9070   12.7130   -2.2400 N   0  0  0  0  0  0  0  0  0  0  0  0
    0.7000   12.4210   -4.7400 C   0  0  0  0  0  0  0  0  0  0  0  0
    0.0980   11.4650   -5.6700 N   0  0  0  0  0  0  0  0  0  0  0  0
    1.2240   14.1250   -2.4560 C   0  0  0  0  0  0  0  0  0  0  0  0
    0.8020   11.3050   -6.8380 C   0  0  0  0  0  0  0  0  0  0  0  0
    0.1890   15.0440   -2.0770 O   0  0  0  0  0  0  0  0  0  0  0  0
    1.9100   11.7600   -6.9430 O   0  0  0  0  0  0  0  0  0  0  0  0
    0.1160   10.5860   -7.7910 N   0  0  0  0  0  0  0  0  0  0  0  0
   -0.9910   14.9360   -2.7390 C   0  0  0  0  0  0  0  0  0  0  0  0
   -1.1370   14.8960   -3.9500 O   0  0  0  0  0  0  0  0  0  0  0  0
    0.7890   10.1070   -9.0020 C   0  0  0  0  0  0  0  0  0  0  0  0
   -2.1230   14.8950   -1.7670 C   0  0  0  0  0  0  0  0  0  0  0  0
    1.3570    8.7080   -8.7570 C   0  0  0  0  0  0  0  0  0  0  0  0
   -0.1150   10.0850  -10.2310 C   0  0  0  0  0  0  0  0  0  0  0  0
   -1.9390   14.6440   -0.3970 C   0  0  0  0  0  0  0  0  0  0  0  0
   -3.4220   15.1260   -2.2430 C   0  0  0  0  0  0  0  0  0  0  0  0
    2.1070    8.1110   -9.9550 C   0  0  0  0  0  0  0  0  0  0  0  0
    0.6270    9.5260  -11.4510 C   0  0  0  0  0  0  0  0  0  0  0  0
   -3.0330   14.6210    0.4770 C   0  0  0  0  0  0  0  0  0  0  0  0
   -4.5110   15.1030   -1.3650 C   0  0  0  0  0  0  0  0  0  0  0  0
    1.2660    8.1520  -11.2210 C   0  0  0  0  0  0  0  0  0  0  0  0
   -4.3250   14.8470    0.0060 C   0  0  0  0  0  0  0  0  0  0  0  0
   -5.4650   14.8260    0.8320 N   0  0  0  0  0  0  0  0  0  0  0  0
   -6.7720   14.7120    0.3790 C   0  0  0  0  0  0  0  0  0  0  0  0
   -7.7560   14.4950    1.4980 C   0  0  0  0  0  0  0  0  0  0  0  0
   -7.1560   14.7770   -0.7820 O   0  0  0  0  0  0  0  0  0  0  0  0
  1  2  1  0
  2  3  2  3
  2  4  1  0
  4  5  1  0
  3  6  1  0
  5  7  1  0
  6  8  1  0
  7  9  2  0
  7 10  1  0
  8 11  1  0
 11 12  2  0
 10 13  1  0
 11 14  1  0
 13 15  1  0
 13 16  1  0
 14 17  2  0
 14 18  1  0
 15 19  1  0
 16 20  1  0
 17 21  1  0
 18 22  2  0
 19 23  1  0
 20 23  1  0
 21 24  2  0
 22 24  1  0
 24 25  1  0
 25 26  1  0
 26 27  1  0
 26 28  2  0
M  END
