mac-x0398-mac-x0394
     RDKit          3D

 22 23  0  0  0  0  0  0  0  0999 V2000
   -6.4310   14.7770    2.0260 N   0  0  0  0  0  0  0  0  0  0  0  0
   -5.6740   14.8960    0.8430 C   0  0  0  0  0  0  0  0  0  0  0  0
   -4.2840   14.9120    0.9160 C   0  0  0  0  0  0  0  0  0  0  0  0
   -6.3020   15.0020   -0.4090 C   0  0  0  0  0  0  0  0  0  0  0  0
   -5.5460   15.1220   -1.5780 C   0  0  0  0  0  0  0  0  0  0  0  0
   -3.5290   15.0300   -0.2420 C   0  0  0  0  0  0  0  0  0  0  0  0
   -6.1770   15.2230   -2.7820 O   0  0  0  0  0  0  0  0  0  0  0  0
   -4.1550   15.1350   -1.5000 C   0  0  0  0  0  0  0  0  0  0  0  0
   -3.2040   15.2560   -2.6230 C   0  0  0  0  0  0  0  0  0  0  0  0
   -3.1870   15.4830   -3.9070 N   0  0  0  0  0  0  0  0  0  0  0  0
   -1.9860   15.0720   -2.1140 O   0  0  0  0  0  0  0  0  0  0  0  0
   -1.8200   15.5150   -4.3050 C   0  0  0  0  0  0  0  0  0  0  0  0
   -1.0050   14.3790   -4.2400 C   0  0  0  0  0  0  0  0  0  0  0  0
   -1.2470   16.7200   -4.7420 C   0  0  0  0  0  0  0  0  0  0  0  0
    0.3540   14.4200   -4.5780 C   0  0  0  0  0  0  0  0  0  0  0  0
    0.1030   16.7680   -5.0770 C   0  0  0  0  0  0  0  0  0  0  0  0
    0.8030   18.2500   -5.5930 Cl  0  0  0  0  0  0  0  0  0  0  0  0
    1.1850   13.1630   -4.4710 C   0  0  0  0  0  0  0  0  0  0  0  0
    0.9020   15.6350   -4.9950 C   0  0  0  0  0  0  0  0  0  0  0  0
    0.8930   12.4570   -3.1550 C   0  0  0  0  0  0  0  0  0  0  0  0
    0.2470   11.2840   -3.3140 O   0  0  0  0  0  0  0  0  0  0  0  0
    1.1870   12.8590   -2.0400 O   0  0  0  0  0  0  0  0  0  0  0  0
  1  2  1  0
  2  3  2  0
  2  4  1  0
  4  5  2  0
  3  6  1  0
  5  7  1  0
  5  8  1  0
  6  8  2  0
  8  9  1  0
  9 10  2  3
  9 11  1  0
 10 12  1  0
 12 13  2  0
 12 14  1  0
 13 15  1  0
 14 16  2  0
 16 17  1  0
 15 18  1  0
 15 19  2  0
 16 19  1  0
 18 20  1  0
 20 21  1  0
 20 22  2  0
M  END
