mac-x0555-diamond-x0722_0_A
     RDKit          3D

 23 25  0  0  0  0  0  0  0  0999 V2000
   -9.2820   14.3200    0.7040 N   0  0  0  0  0  0  0  0  0  0  0  0
   -8.5610   14.3010   -0.4980 C   0  0  0  0  0  0  0  0  0  0  0  0
   -9.0790   13.9420   -1.7310 C   0  0  0  0  0  0  0  0  0  0  0  0
   -7.2380   14.6550   -0.5130 C   0  0  0  0  0  0  0  0  0  0  0  0
   -6.4590   14.6520   -1.6840 C   0  0  0  0  0  0  0  0  0  0  0  0
   -8.3720   13.9230   -2.8980 N   0  0  0  0  0  0  0  0  0  0  0  0
   -7.0740   14.2760   -2.8610 C   0  0  0  0  0  0  0  0  0  0  0  0
   -5.1180   15.0120   -1.6650 C   0  0  0  0  0  0  0  0  0  0  0  0
   -4.7020   15.3610   -0.3040 C   0  0  1  0  0  0  0  0  0  0  0  0
   -6.2990   14.2730   -4.0160 C   0  0  0  0  0  0  0  0  0  0  0  0
   -4.3390   15.0110   -2.8200 C   0  0  0  0  0  0  0  0  0  0  0  0
   -5.5770   14.5540    0.6770 C   0  0  0  0  0  0  0  0  0  0  0  0
   -4.9430   14.6340   -4.0100 C   0  0  0  0  0  0  0  0  0  0  0  0
   -3.3280   15.0250    0.0600 C   0  0  0  0  0  0  0  0  0  0  0  0
   -6.4200   14.9860    1.4530 O   0  0  0  0  0  0  0  0  0  0  0  0
   -5.3560   13.1930    0.6490 N   0  0  0  0  0  0  0  0  0  0  0  0
   -3.1160   15.0910    1.4070 C   0  0  0  0  0  0  0  0  0  0  0  0
   -2.1270   14.6430   -0.5040 C   0  0  0  0  0  0  0  0  0  0  0  0
   -4.2100   15.4710    2.3100 C   0  0  0  0  0  0  0  0  0  0  0  0
   -1.6850   14.3920   -1.8950 C   0  0  0  0  0  0  0  0  0  0  0  0
   -1.8890   14.7860    1.7550 N   0  0  0  0  0  0  0  0  0  0  0  0
   -1.3050   14.5180    0.5860 N   0  0  0  0  0  0  0  0  0  0  0  0
    0.0640   14.1450    0.6110 C   0  0  0  0  0  0  0  0  0  0  0  0
  1  2  1  0
  2  3  2  0
  2  4  1  0
  4  5  2  0
  3  6  1  0
  5  7  1  0
  6  7  2  0
  5  8  1  0
  8  9  1  0
  7 10  1  0
  8 11  2  0
  9 12  1  1
 10 13  2  0
 11 13  1  0
  9 14  1  0
 12 15  2  0
 12 16  1  0
 14 17  1  0
 14 18  2  0
 17 19  1  0
 18 20  1  0
 17 21  2  0
 18 22  1  0
 21 22  1  0
 22 23  1  0
M  END
