mac-x0148-diamond-x0926_0_A
     RDKit          3D

 19 22  0  0  0  0  0  0  0  0999 V2000
   -5.7980   15.2380   -0.1450 O   0  0  0  0  0  0  0  0  0  0  0  0
   -4.5820   15.1240   -0.0120 C   0  0  0  0  0  0  0  0  0  0  0  0
   -3.8270   15.1530    1.1320 N   0  0  0  0  0  0  0  0  0  0  0  0
   -3.6880   14.9000   -1.1580 C   0  0  0  0  0  0  0  0  0  0  0  0
   -2.6230   14.9340    0.7300 C   0  0  0  0  0  0  0  0  0  0  0  0
   -2.4500   14.7590   -0.6930 C   0  0  0  0  0  0  0  0  0  0  0  0
   -1.5400   14.8740    1.5360 N   0  0  0  0  0  0  0  0  0  0  0  0
   -1.1030   14.5090   -1.2220 C   0  0  0  0  0  0  0  0  0  0  0  0
   -0.7960   14.2900   -2.5710 N   0  0  0  0  0  0  0  0  0  0  0  0
   -0.1310   14.4840   -0.3430 N   0  0  0  0  0  0  0  0  0  0  0  0
   -0.3890   14.6670    0.9950 C   0  0  0  0  0  0  0  0  0  0  0  0
   -1.8870   14.2150   -3.5760 C   0  0  1  0  0  0  0  0  0  0  0  0
    0.4470   13.5170   -2.8170 C   0  0  0  0  0  0  0  0  0  0  0  0
   -2.0880   15.4520   -4.4320 C   0  0  0  0  0  0  0  0  0  0  0  0
   -1.8470   13.0770   -4.6010 C   0  0  1  0  0  0  0  0  0  0  0  0
    0.2090   12.2280   -3.5760 C   0  0  0  0  0  0  0  0  0  0  0  0
   -2.5150   13.6460   -5.8410 C   0  0  0  0  0  0  0  0  0  0  0  0
   -2.8120   15.0320   -5.6000 O   0  0  0  0  0  0  0  0  0  0  0  0
   -0.4570   12.5320   -4.8880 C   0  0  0  0  0  0  0  0  0  0  0  0
  1  2  2  0
  2  3  1  0
  2  4  1  0
  3  5  2  0
  4  6  2  0
  5  6  1  0
  5  7  1  0
  6  8  1  0
  8  9  1  0
  8 10  2  0
  7 11  2  0
 10 11  1  0
  9 12  1  0
  9 13  1  0
 12 14  1  6
 12 15  1  0
 13 16  1  0
 15 17  1  6
 14 18  1  0
 17 18  1  0
 15 19  1  0
 16 19  1  0
M  END
