mac-x0365-mac-x0453
     RDKit          3D

 14 14  0  0  0  0  0  0  0  0999 V2000
   -0.7010   14.8080   -1.4780 O   0  0  0  0  0  0  0  0  0  0  0  0
   -1.7310   14.7970   -2.3470 C   0  0  0  0  0  0  0  0  0  0  0  0
   -1.5860   14.7230   -3.5530 O   0  0  0  0  0  0  0  0  0  0  0  0
   -3.0740   14.8810   -1.7200 C   0  0  0  0  0  0  0  0  0  0  0  0
   -4.1600   15.0960   -2.5650 C   0  0  0  0  0  0  0  0  0  0  0  0
   -3.2770   14.7480   -0.3360 C   0  0  0  0  0  0  0  0  0  0  0  0
   -5.4350   15.1710   -2.0260 C   0  0  0  0  0  0  0  0  0  0  0  0
   -4.5810   14.8270    0.1880 C   0  0  0  0  0  0  0  0  0  0  0  0
   -6.4920   15.3670   -2.8130 F   0  0  0  0  0  0  0  0  0  0  0  0
   -4.8170   14.6650    1.6490 C   0  0  0  0  0  0  0  0  0  0  0  0
   -5.6460   15.0410   -0.6720 C   0  0  0  0  0  0  0  0  0  0  0  0
   -6.9230   15.1200   -0.1860 O   0  0  0  0  0  0  0  0  0  0  0  0
   -5.8810   13.5880    1.9080 C   0  0  0  0  0  0  0  0  0  0  0  0
   -6.9460   14.0460    2.8030 N   0  0  0  0  0  0  0  0  0  0  0  0
  1  2  1  0
  2  3  2  0
  2  4  1  0
  4  5  2  0
  4  6  1  0
  5  7  1  0
  6  8  2  0
  7  9  1  0
  8 10  1  0
  7 11  2  0
  8 11  1  0
 11 12  1  0
 10 13  1  0
 13 14  1  0
M  END
