mac-x0206-diamond-x0626_0_A
     RDKit          3D

 20 21  0  0  0  0  0  0  0  0999 V2000
   -2.7140   15.9030   -1.3450 N   0  0  0  0  0  0  0  0  0  0  0  0
   -4.0520   15.6480   -1.3880 C   0  0  0  0  0  0  0  0  0  0  0  0
   -4.6330   15.5470   -2.4620 O   0  0  0  0  0  0  0  0  0  0  0  0
   -4.7520   15.4780   -0.0930 C   0  0  0  0  0  0  0  0  0  0  0  0
   -5.9990   14.8870    0.0780 C   0  0  0  0  0  0  0  0  0  0  0  0
   -4.1010   15.9270    1.0620 C   0  0  0  0  0  0  0  0  0  0  0  0
   -6.8480   14.3210   -0.7780 N   0  0  0  0  0  0  0  0  0  0  0  0
   -6.5900   14.7530    1.3200 C   0  0  0  0  0  0  0  0  0  0  0  0
   -4.7040   15.7750    2.3120 C   0  0  0  0  0  0  0  0  0  0  0  0
   -6.5280   13.1340   -0.4130 C   0  0  0  0  0  0  0  0  0  0  0  0
   -5.9580   15.1910    2.4240 C   0  0  0  0  0  0  0  0  0  0  0  0
   -5.4510   12.9200    0.4720 N   0  0  0  0  0  0  0  0  0  0  0  0
   -7.4050   12.0610   -0.9710 C   0  0  0  0  0  0  0  0  0  0  0  0
   -8.8050   12.3420   -0.4410 C   0  0  0  0  0  0  0  0  0  0  0  0
   -4.1310   13.2710    0.2830 C   0  0  0  0  0  0  0  0  0  0  0  0
   -3.2340   13.7270    1.1480 N   0  0  0  0  0  0  0  0  0  0  0  0
   -3.5010   13.1170   -1.3200 S   0  0  0  0  0  0  0  0  0  0  0  0
   -1.9730   13.6830   -0.8140 C   0  0  0  0  0  0  0  0  0  0  0  0
   -1.9990   13.9630    0.5310 C   0  0  0  0  0  0  0  0  0  0  0  0
   -0.8550   14.4700    1.3170 C   0  0  0  0  0  0  0  0  0  0  0  0
  1  2  1  0
  2  3  2  0
  2  4  1  0
  4  5  2  0
  4  6  1  0
  5  7  1  0
  5  8  1  0
  6  9  2  0
  7 10  2  3
  8 11  2  0
  9 11  1  0
 10 12  1  0
 10 13  1  0
 13 14  1  0
 12 15  1  0
 15 16  2  0
 15 17  1  0
 17 18  1  0
 16 19  1  0
 18 19  2  0
 19 20  1  0
M  END
