mac-x0123-mac-x0453
     RDKit          3D

 15 17  0  0  0  0  0  0  0  0999 V2000
   -4.0850   15.1060    1.6100 N   0  0  0  0  0  0  0  0  0  0  0  0
   -4.4140   14.6700    2.8980 C   0  0  0  0  0  0  0  0  0  0  0  0
   -5.6310   13.9090    3.0800 N   0  0  0  0  0  0  0  0  0  0  0  0
   -5.0180   14.8890    0.6530 C   0  0  0  0  0  0  0  0  0  0  0  0
   -4.5990   14.8970   -0.6850 N   0  0  0  0  0  0  0  0  0  0  0  0
   -6.3060   14.6520    0.9110 C   0  0  0  0  0  0  0  0  0  0  0  0
   -5.5000   14.6950   -1.7320 C   0  0  0  0  0  0  0  0  0  0  0  0
   -7.1940   14.4650   -0.2570 C   0  0  0  0  0  0  0  0  0  0  0  0
   -7.1280   14.5260    2.1590 C   0  0  0  0  0  0  0  0  0  0  0  0
   -3.3390   15.0730   -1.1740 N   0  0  0  0  0  0  0  0  0  0  0  0
   -6.8400   14.4840   -1.5050 N   0  0  0  0  0  0  0  0  0  0  0  0
   -8.6010   14.2620    0.2180 C   0  0  0  0  0  0  0  0  0  0  0  0
   -8.4010   13.8470    1.6750 C   0  0  0  0  0  0  0  0  0  0  0  0
   -4.8340   14.7420   -2.8660 N   0  0  0  0  0  0  0  0  0  0  0  0
   -3.5480   14.9720   -2.4790 C   0  0  0  0  0  0  0  0  0  0  0  0
  1  2  1  0
  2  3  1  0
  1  4  1  0
  4  5  1  0
  4  6  2  0
  5  7  1  0
  6  8  1  0
  6  9  1  0
  5 10  1  0
  7 11  1  0
  8 11  2  0
  8 12  1  0
  9 13  1  0
 12 13  1  0
  7 14  2  0
 10 15  2  0
 14 15  1  0
M  END
