mac-x0204-diamond-x0766_0_A
     RDKit          3D

 21 23  0  0  0  0  0  0  0  0999 V2000
    1.0230   12.5970   -1.3420 O   0  0  0  0  0  0  0  0  0  0  0  0
    0.2580   12.7740   -2.4590 S   0  0  0  0  0  0  0  0  0  0  0  0
   -0.8460   12.3630   -1.3620 O   0  0  0  0  0  0  0  0  0  0  0  0
    1.1220   11.4960   -3.1880 O   0  0  0  0  0  0  0  0  0  0  0  0
   -0.9230   12.7800   -3.6350 C   0  0  0  0  0  0  0  0  0  0  0  0
    0.9440   14.2400   -2.7280 C   0  0  1  0  0  0  0  0  0  0  0  0
   -1.3480   13.9720   -4.2660 C   0  0  0  0  0  0  0  0  0  0  0  0
   -1.6350   11.7130   -4.1620 C   0  0  0  0  0  0  0  0  0  0  0  0
    1.6210   14.2390   -4.1140 C   0  0  0  0  0  0  0  0  0  0  0  0
   -0.0170   15.3580   -2.7840 C   0  0  1  0  0  0  0  0  0  0  0  0
   -2.3070   14.0820   -5.2400 C   0  0  0  0  0  0  0  0  0  0  0  0
   -2.5640   11.7790   -5.1000 N   0  0  0  0  0  0  0  0  0  0  0  0
   -0.1380   15.8490   -4.1840 C   0  0  0  0  0  0  0  0  0  0  0  0
    0.8160   15.0530   -5.0670 C   0  0  0  0  0  0  0  0  0  0  0  0
   -1.3180   14.9850   -2.0620 C   0  0  0  0  0  0  0  0  0  0  0  0
   -2.6850   15.2820   -5.8210 O   0  0  0  0  0  0  0  0  0  0  0  0
   -2.8960   12.9280   -5.6290 C   0  0  0  0  0  0  0  0  0  0  0  0
   -2.5600   15.0840   -2.6590 C   0  0  0  0  0  0  0  0  0  0  0  0
   -1.3100   14.5480   -0.7890 C   0  0  0  0  0  0  0  0  0  0  0  0
   -2.5110   14.2490   -0.2030 C   0  0  0  0  0  0  0  0  0  0  0  0
   -3.6370   14.5810   -1.4380 S   0  0  0  0  0  0  0  0  0  0  0  0
  1  2  1  0
  2  3  2  0
  2  4  1  0
  2  5  1  0
  6  2  1  6
  5  7  2  0
  5  8  1  0
  6  9  1  0
  6 10  1  0
  7 11  1  0
  8 12  2  0
 10 13  1  0
  9 14  1  0
 13 14  1  0
 10 15  1  6
 11 16  1  0
 11 17  2  0
 12 17  1  0
 15 18  2  0
 15 19  1  0
 19 20  2  0
 18 21  1  0
 20 21  1  0
M  END
