mac-x0568-mac-x0496
     RDKit          3D

 26 28  0  0  0  0  0  0  0  0999 V2000
   -8.5080   14.9780    0.7330 C   0  0  2  0  0  0  0  0  0  0  0  0
   -7.2740   14.7080    1.4400 N   0  0  0  0  0  0  0  0  0  0  0  0
   -6.6930   13.5180    1.5830 C   0  0  0  0  0  0  0  0  0  0  0  0
   -8.4100   15.7400   -0.6360 C   0  0  1  0  0  0  0  0  0  0  0  0
   -9.3420   15.7040    1.7680 C   0  0  0  0  0  0  0  0  0  0  0  0
   -7.0770   15.6350   -1.6250 C   0  0  1  0  0  0  0  0  0  0  0  0
   -9.6100   15.2840   -1.5380 C   0  0  0  0  0  0  0  0  0  0  0  0
  -10.6420   16.0020    1.4710 O   0  0  0  0  0  0  0  0  0  0  0  0
   -8.9790   16.1080    2.9730 N   0  0  0  0  0  0  0  0  0  0  0  0
   -5.6050   15.8410   -1.1150 C   0  0  2  0  0  0  0  0  0  0  0  0
   -7.2850   12.6990    2.2850 O   0  0  0  0  0  0  0  0  0  0  0  0
   -7.4150   14.4200   -2.4570 C   0  0  0  0  0  0  0  0  0  0  0  0
   -5.4090   13.1880    0.8450 C   0  0  1  0  0  0  0  0  0  0  0  0
  -10.1080   16.7150    3.4380 C   0  0  0  0  0  0  0  0  0  0  0  0
  -11.1440   16.6710    2.5970 N   0  0  0  0  0  0  0  0  0  0  0  0
   -8.6670   14.4780   -2.2580 C   0  0  0  0  0  0  0  0  0  0  0  0
   -4.4340   15.1440   -1.9150 C   0  0  0  0  0  0  0  0  0  0  0  0
   -5.4270   15.4190    0.2930 N   0  0  0  0  0  0  0  0  0  0  0  0
  -10.1660   17.3670    4.7630 C   0  0  0  0  0  0  0  0  0  0  0  0
   -4.0910   13.0860    1.6080 C   0  0  0  0  0  0  0  0  0  0  0  0
   -5.7560   11.9440    0.0620 C   0  0  0  0  0  0  0  0  0  0  0  0
   -3.4210   15.9910   -2.4150 O   0  0  0  0  0  0  0  0  0  0  0  0
   -4.8600   14.3410   -3.0060 O   0  0  0  0  0  0  0  0  0  0  0  0
   -3.0530   13.8990    1.3320 C   0  0  0  0  0  0  0  0  0  0  0  0
   -3.9090   14.3600   -0.8150 C   0  0  0  0  0  0  0  0  0  0  0  0
   -3.3430   14.7920    0.3050 C   0  0  0  0  0  0  0  0  0  0  0  0
  1  2  1  0
  2  3  1  0
  1  4  1  0
  1  5  1  1
  4  6  1  0
  4  7  1  6
  5  8  1  0
  5  9  2  0
  6 10  1  0
  3 11  2  0
  6 12  1  1
  3 13  1  0
  9 14  1  0
  8 15  1  0
 14 15  2  0
  7 16  1  0
 12 16  2  0
 10 17  1  0
 10 18  1  1
 14 19  1  0
 13 20  1  0
 13 21  1  1
 17 22  1  0
 17 23  1  0
 20 24  2  0
 17 25  1  0
 24 26  1  0
 25 26  2  0
M  END
