mac-x0496-diamond-x0626_0_A
     RDKit          3D

 20 21  0  0  0  0  0  0  0  0999 V2000
   -9.6760   17.6680    4.6900 C   0  0  0  0  0  0  0  0  0  0  0  0
   -9.6330   16.7250    3.5480 C   0  0  0  0  0  0  0  0  0  0  0  0
  -10.3460   16.8740    2.4170 N   0  0  0  0  0  0  0  0  0  0  0  0
   -8.8470   15.6180    3.5620 N   0  0  0  0  0  0  0  0  0  0  0  0
  -10.0030   15.7790    1.6440 O   0  0  0  0  0  0  0  0  0  0  0  0
   -9.1010   15.0820    2.3860 C   0  0  0  0  0  0  0  0  0  0  0  0
   -8.5470   13.8610    1.7800 C   0  0  0  0  0  0  0  0  0  0  0  0
   -7.1290   14.0800    1.5570 N   0  0  0  0  0  0  0  0  0  0  0  0
   -6.6620   14.5960    0.3600 C   0  0  0  0  0  0  0  0  0  0  0  0
   -7.3990   14.9470   -0.5530 O   0  0  0  0  0  0  0  0  0  0  0  0
   -5.1820   14.6920    0.2330 C   0  0  0  0  0  0  0  0  0  0  0  0
   -4.4720   14.7380    1.4220 C   0  0  0  0  0  0  0  0  0  0  0  0
   -4.4850   14.7310   -0.9780 C   0  0  0  0  0  0  0  0  0  0  0  0
   -3.0930   14.8030    1.4300 C   0  0  0  0  0  0  0  0  0  0  0  0
   -3.0730   14.8020   -0.9830 C   0  0  0  0  0  0  0  0  0  0  0  0
   -2.4560   14.8320   -2.3380 C   0  0  0  0  0  0  0  0  0  0  0  0
   -2.3530   14.8330    0.2500 C   0  0  0  0  0  0  0  0  0  0  0  0
   -1.2660   14.7330   -2.5620 O   0  0  0  0  0  0  0  0  0  0  0  0
   -3.3320   14.9820   -3.3440 O   0  0  0  0  0  0  0  0  0  0  0  0
   -0.8420   14.8930    0.4120 C   0  0  0  0  0  0  0  0  0  0  0  0
  1  2  1  0
  2  3  2  0
  2  4  1  0
  3  5  1  0
  4  6  2  0
  5  6  1  0
  6  7  1  0
  7  8  1  0
  8  9  1  0
  9 10  2  0
  9 11  1  0
 11 12  2  0
 11 13  1  0
 12 14  1  0
 13 15  2  0
 15 16  1  0
 14 17  2  0
 15 17  1  0
 16 18  2  0
 16 19  1  0
 17 20  1  0
M  END
