mac-x0576-mac-x0375
     RDKit          3D

 26 28  0  0  0  0  0  0  0  0999 V2000
   -0.0020   14.0110    1.8010 N   0  0  0  0  0  0  0  0  0  0  0  0
   -0.6500   14.8690    0.8730 C   0  0  2  0  0  0  0  0  0  0  0  0
   -1.9590   14.9110    1.4520 N   0  0  0  0  0  0  0  0  0  0  0  0
   -0.4970   14.4940   -0.4610 N   0  0  0  0  0  0  0  0  0  0  0  0
   -1.4700   14.6980   -1.3790 C   0  0  0  0  0  0  0  0  0  0  0  0
   -3.0040   14.3200    0.6390 C   0  0  2  0  0  0  0  0  0  0  0  0
   -1.2160   15.0930   -2.5740 N   0  0  0  0  0  0  0  0  0  0  0  0
   -2.9350   14.4560   -0.9100 C   0  0  1  0  0  0  0  0  0  0  0  0
   -4.2200   14.7800    1.2540 N   0  0  0  0  0  0  0  0  0  0  0  0
    0.1870   15.3930   -2.9100 C   0  0  0  0  0  0  0  0  0  0  0  0
   -5.3680   14.9650    0.5430 C   0  0  0  0  0  0  0  0  0  0  0  0
   -3.8610   15.5030   -1.4160 N   0  0  0  0  0  0  0  0  0  0  0  0
   -6.4580   14.8150    1.0950 O   0  0  0  0  0  0  0  0  0  0  0  0
    0.7990   14.3340   -3.8080 C   0  0  0  0  0  0  0  0  0  0  0  0
   -5.2490   15.3560   -0.9290 C   0  0  0  0  0  0  0  0  0  0  0  0
    1.1450   13.1590   -3.0550 O   0  0  0  0  0  0  0  0  0  0  0  0
    0.8850   12.0400   -3.7540 C   0  0  0  0  0  0  0  0  0  0  0  0
    0.5860   10.9580   -3.2620 O   0  0  0  0  0  0  0  0  0  0  0  0
    1.0320   12.3980   -5.2370 C   0  0  0  0  0  0  0  0  0  0  0  0
    0.7720   11.3670   -6.1590 O   0  0  0  0  0  0  0  0  0  0  0  0
   -0.4310   10.7320   -6.0990 C   0  0  0  0  0  0  0  0  0  0  0  0
   -0.4570    9.5210   -6.7920 C   0  0  0  0  0  0  0  0  0  0  0  0
   -1.5760   11.1700   -5.4370 C   0  0  0  0  0  0  0  0  0  0  0  0
   -1.6160    8.7490   -6.8250 C   0  0  0  0  0  0  0  0  0  0  0  0
   -2.7400   10.3950   -5.4700 C   0  0  0  0  0  0  0  0  0  0  0  0
   -2.7580    9.1860   -6.1640 C   0  0  0  0  0  0  0  0  0  0  0  0
  2  1  1  1
  2  3  1  0
  2  4  1  0
  4  5  1  0
  6  3  1  1
  5  7  2  3
  5  8  1  0
  6  8  1  0
  6  9  1  0
  7 10  1  0
  9 11  1  0
  8 12  1  1
 11 13  2  0
 10 14  1  0
 11 15  1  0
 12 15  1  0
 14 16  1  0
 16 17  1  0
 17 18  2  0
 17 19  1  0
 19 20  1  0
 20 21  1  0
 21 22  2  0
 21 23  1  0
 22 24  1  0
 23 25  2  0
 24 26  2  0
 25 26  1  0
M  END
