mac-x0433-diamond-x1012_0_A
     RDKit          3D

 23 24  0  0  0  0  0  0  0  0999 V2000
   -3.1650   15.3470    0.8560 C   0  0  0  0  0  0  0  0  0  0  0  0
   -4.4460   15.1360    0.1230 C   0  0  0  0  0  0  0  0  0  0  0  0
   -5.6080   14.9150    0.8110 C   0  0  0  0  0  0  0  0  0  0  0  0
   -4.4090   15.1740   -1.2080 N   0  0  0  0  0  0  0  0  0  0  0  0
   -5.5430   14.9860   -1.8820 C   0  0  0  0  0  0  0  0  0  0  0  0
   -6.7460   14.7370    0.0540 C   0  0  0  0  0  0  0  0  0  0  0  0
   -8.0550   14.4980    0.7390 C   0  0  0  0  0  0  0  0  0  0  0  0
   -5.3530   15.0290   -3.2540 N   0  0  0  0  0  0  0  0  0  0  0  0
   -6.7340   14.7690   -1.2980 N   0  0  0  0  0  0  0  0  0  0  0  0
   -3.9130   15.2470   -3.5570 C   0  0  0  0  0  0  0  0  0  0  0  0
   -3.5130   15.7470   -4.9690 C   0  0  0  0  0  0  0  0  0  0  0  0
   -2.6720   16.9640   -4.8310 N   0  0  0  0  0  0  0  0  0  0  0  0
   -1.4070   16.8550   -4.8170 C   0  0  0  0  0  0  0  0  0  0  0  0
   -0.6980   18.0140   -4.6970 N   0  0  0  0  0  0  0  0  0  0  0  0
   -0.6340   15.7350   -4.8990 N   0  0  0  0  0  0  0  0  0  0  0  0
   -1.2640   14.4330   -5.1010 C   0  0  0  0  0  0  0  0  0  0  0  0
    0.7850   15.7350   -4.5080 C   0  0  0  0  0  0  0  0  0  0  0  0
   -1.1370   13.6200   -3.8360 C   0  0  0  0  0  0  0  0  0  0  0  0
    1.0910   14.7300   -3.3820 C   0  0  0  0  0  0  0  0  0  0  0  0
    0.3410   13.3870   -3.5600 C   0  0  0  0  0  0  0  0  0  0  0  0
    0.4420   12.4670   -2.3620 C   0  0  0  0  0  0  0  0  0  0  0  0
    0.3730   11.1670   -2.7140 O   0  0  0  0  0  0  0  0  0  0  0  0
    0.5580   12.7780   -1.1910 O   0  0  0  0  0  0  0  0  0  0  0  0
  1  2  1  0
  2  3  2  0
  2  4  1  0
  4  5  2  0
  3  6  1  0
  6  7  1  0
  5  8  1  0
  5  9  1  0
  6  9  2  0
  8 10  1  0
 10 11  1  0
 11 12  1  0
 12 13  2  3
 13 14  1  0
 13 15  1  0
 15 16  1  0
 15 17  1  0
 16 18  1  0
 17 19  1  0
 18 20  1  0
 19 20  1  0
 20 21  1  0
 21 22  1  0
 21 23  2  0
M  END
