mac-x0415-mac-x0411
     RDKit          3D

 24 26  0  0  0  0  0  0  0  0999 V2000
    0.1830   11.0950   -3.7350 N   0  0  0  0  0  0  0  0  0  0  0  0
    0.8940   12.2110   -3.7770 C   0  0  0  0  0  0  0  0  0  0  0  0
    1.3430   12.7780   -2.7690 O   0  0  0  0  0  0  0  0  0  0  0  0
    0.2790   10.5830   -2.6130 C   0  0  0  0  0  0  0  0  0  0  0  0
    1.1180   12.7670   -5.1890 C   0  0  1  0  0  0  0  0  0  0  0  0
    0.5600   12.1570   -6.4270 O   0  0  0  0  0  0  0  0  0  0  0  0
    0.7510   14.1930   -4.9070 C   0  0  0  0  0  0  0  0  0  0  0  0
    1.7490   15.2010   -4.5440 C   0  0  0  0  0  0  0  0  0  0  0  0
   -0.3400   14.9520   -4.8650 C   0  0  0  0  0  0  0  0  0  0  0  0
   -0.4490   11.1610   -6.4830 C   0  0  0  0  0  0  0  0  0  0  0  0
    1.3740   16.4270   -4.3420 N   0  0  0  0  0  0  0  0  0  0  0  0
   -0.0580   16.3440   -4.4510 C   0  0  1  0  0  0  0  0  0  0  0  0
   -1.7050   14.6510   -5.1190 C   0  0  0  0  0  0  0  0  0  0  0  0
   -1.7000   11.4790   -5.9550 C   0  0  0  0  0  0  0  0  0  0  0  0
   -0.3410    9.8510   -7.0570 C   0  0  0  0  0  0  0  0  0  0  0  0
    1.0460    9.1930   -7.8450 Cl  0  0  0  0  0  0  0  0  0  0  0  0
   -1.9910   13.0160   -5.2840 Cl  0  0  0  0  0  0  0  0  0  0  0  0
   -0.7990   17.3640   -5.2470 C   0  0  0  0  0  0  0  0  0  0  0  0
   -2.5040   15.6360   -5.5600 C   0  0  0  0  0  0  0  0  0  0  0  0
   -2.7710   10.5780   -5.9630 C   0  0  0  0  0  0  0  0  0  0  0  0
   -1.4240    8.9550   -7.0400 C   0  0  0  0  0  0  0  0  0  0  0  0
   -4.2740   15.2260   -5.9540 Br  0  0  0  0  0  0  0  0  0  0  0  0
   -1.9940   17.0060   -5.7670 C   0  0  0  0  0  0  0  0  0  0  0  0
   -2.6360    9.3170   -6.4910 C   0  0  0  0  0  0  0  0  0  0  0  0
  1  2  1  0
  2  3  2  0
  1  4  2  3
  2  5  1  0
  5  6  1  6
  5  7  1  0
  7  8  1  0
  7  9  2  0
  6 10  1  0
  8 11  2  0
  9 12  1  0
 11 12  1  0
  9 13  1  0
 10 14  2  0
 10 15  1  0
 15 16  1  0
 14 17  1  0
 12 18  1  6
 13 19  2  0
 14 20  1  0
 15 21  2  0
 19 22  1  0
 18 23  2  0
 19 23  1  0
 20 24  2  0
 21 24  1  0
M  END
