mac-x0319-mac-x0206
     RDKit          3D

 24 25  0  0  0  0  0  0  0  0999 V2000
    0.5190   10.4380   -2.4390 O   0  0  0  0  0  0  0  0  0  0  0  0
    0.6810   11.7890   -2.4440 C   0  0  0  0  0  0  0  0  0  0  0  0
    0.3610   12.3760   -1.3400 N   0  0  0  0  0  0  0  0  0  0  0  0
    1.2070   12.4360   -3.7280 C   0  0  0  0  0  0  0  0  0  0  0  0
    0.4490   13.8220   -1.1230 C   0  0  0  0  0  0  0  0  0  0  0  0
    0.5650   13.7620   -4.0670 C   0  0  0  0  0  0  0  0  0  0  0  0
   -0.6250   14.2610   -0.1230 C   0  0  0  0  0  0  0  0  0  0  0  0
    1.2890   14.9700   -3.9790 C   0  0  0  0  0  0  0  0  0  0  0  0
   -0.7770   13.8000   -4.4720 C   0  0  0  0  0  0  0  0  0  0  0  0
   -2.0300   14.0180   -0.6850 C   0  0  0  0  0  0  0  0  0  0  0  0
    0.6510   16.1710   -4.2880 C   0  0  0  0  0  0  0  0  0  0  0  0
   -1.3930   15.0110   -4.7800 C   0  0  0  0  0  0  0  0  0  0  0  0
    1.2800   17.3760   -4.2140 O   0  0  0  0  0  0  0  0  0  0  0  0
   -3.0150   14.9990   -0.2570 N   0  0  0  0  0  0  0  0  0  0  0  0
   -0.6750   16.1990   -4.6860 C   0  0  0  0  0  0  0  0  0  0  0  0
   -4.2330   15.1440   -0.8830 C   0  0  0  0  0  0  0  0  0  0  0  0
   -4.3290   15.3920   -2.0810 O   0  0  0  0  0  0  0  0  0  0  0  0
   -5.4840   14.9700   -0.0700 C   0  0  0  0  0  0  0  0  0  0  0  0
   -6.7590   14.7920   -0.6340 C   0  0  0  0  0  0  0  0  0  0  0  0
   -5.3830   14.9860    1.3320 C   0  0  0  0  0  0  0  0  0  0  0  0
   -6.9300   14.7660   -1.9910 O   0  0  0  0  0  0  0  0  0  0  0  0
   -7.8940   14.6330    0.1700 C   0  0  0  0  0  0  0  0  0  0  0  0
   -6.5310   14.8270    2.1330 C   0  0  0  0  0  0  0  0  0  0  0  0
   -7.7780   14.6510    1.5530 C   0  0  0  0  0  0  0  0  0  0  0  0
  1  2  1  0
  2  3  2  3
  2  4  1  0
  3  5  1  0
  4  6  1  0
  5  7  1  0
  6  8  2  0
  6  9  1  0
  7 10  1  0
  8 11  1  0
  9 12  2  0
 11 13  1  0
 10 14  1  0
 11 15  2  0
 12 15  1  0
 14 16  1  0
 16 17  2  0
 16 18  1  0
 18 19  2  0
 18 20  1  0
 19 21  1  0
 19 22  1  0
 20 23  2  0
 22 24  2  0
 23 24  1  0
M  END
