mac-x0179-diamond-x0724_0_A
     RDKit          3D

 31 34  0  0  0  0  0  0  0  0999 V2000
    1.6110   12.9480   -2.2620 O   0  0  0  0  0  0  0  0  0  0  0  0
    0.9650   12.2060   -3.1830 C   0  0  0  0  0  0  0  0  0  0  0  0
    0.7130   11.0370   -2.9370 O   0  0  0  0  0  0  0  0  0  0  0  0
    0.6180   12.9220   -4.4800 C   0  0  0  0  0  0  0  0  0  0  0  0
   -0.0170   12.0470   -5.4540 N   0  0  0  0  0  0  0  0  0  0  0  0
    0.6920   11.5130   -6.4830 C   0  0  0  0  0  0  0  0  0  0  0  0
   -1.2620   11.4620   -5.3260 C   0  0  0  0  0  0  0  0  0  0  0  0
    1.7730   11.8420   -6.9000 O   0  0  0  0  0  0  0  0  0  0  0  0
   -2.1590   11.8980   -4.5040 N   0  0  0  0  0  0  0  0  0  0  0  0
   -0.0950   10.4010   -7.0050 C   0  0  0  0  0  0  0  0  0  0  0  0
   -1.2880   10.3490   -6.2960 C   0  0  0  0  0  0  0  0  0  0  0  0
   -2.0170   13.0510   -3.6070 C   0  0  0  0  0  0  0  0  0  0  0  0
    0.2200    9.5090   -8.0190 C   0  0  0  0  0  0  0  0  0  0  0  0
   -2.2240    9.3690   -6.5820 C   0  0  0  0  0  0  0  0  0  0  0  0
   -3.3910   13.7330   -3.3640 C   0  0  0  0  0  0  0  0  0  0  0  0
   -0.7210    8.5220   -8.3160 C   0  0  0  0  0  0  0  0  0  0  0  0
   -1.9320    8.4500   -7.6030 C   0  0  0  0  0  0  0  0  0  0  0  0
   -3.5750   14.1660   -1.9180 C   0  0  0  0  0  0  0  0  0  0  0  0
   -2.4470   14.5250   -1.1760 C   0  0  0  0  0  0  0  0  0  0  0  0
   -4.8400   14.2110   -1.2950 C   0  0  0  0  0  0  0  0  0  0  0  0
   -2.5580   14.9160    0.1570 C   0  0  0  0  0  0  0  0  0  0  0  0
   -4.9530   14.6070    0.0570 C   0  0  0  0  0  0  0  0  0  0  0  0
   -6.2140   14.6540    0.7160 N   0  0  0  0  0  0  0  0  0  0  0  0
   -3.8020   14.9570    0.7730 C   0  0  0  0  0  0  0  0  0  0  0  0
   -7.4010   14.5380    0.0590 N   0  0  0  0  0  0  0  0  0  0  0  0
   -6.4150   14.8240    2.0680 C   0  0  0  0  0  0  0  0  0  0  0  0
   -7.7720   14.8250    2.3040 C   0  0  0  0  0  0  0  0  0  0  0  0
   -8.3250   14.6410    1.0210 C   0  0  0  0  0  0  0  0  0  0  0  0
   -8.4890   14.9880    3.6020 C   0  0  0  0  0  0  0  0  0  0  0  0
   -8.2760   13.7920    4.4110 N   0  0  0  0  0  0  0  0  0  0  0  0
   -8.7190   14.0010    5.7820 C   0  0  0  0  0  0  0  0  0  0  0  0
  1  2  1  0
  2  3  2  0
  2  4  1  0
  4  5  1  0
  5  6  1  0
  5  7  1  0
  6  8  2  0
  7  9  2  3
  6 10  1  0
  7 11  1  0
 10 11  2  0
  9 12  1  0
 10 13  1  0
 11 14  1  0
 12 15  1  0
 13 16  2  0
 14 17  2  0
 16 17  1  0
 15 18  1  0
 18 19  2  0
 18 20  1  0
 19 21  1  0
 20 22  2  0
 22 23  1  0
 21 24  2  0
 22 24  1  0
 23 25  1  0
 23 26  1  0
 26 27  2  0
 25 28  2  0
 27 28  1  0
 27 29  1  0
 29 30  1  0
 30 31  1  0
M  END
