mac-x0137-diamond-x0967_0_A
     RDKit          3D

 21 24  0  0  0  0  0  0  0  0999 V2000
   -2.9500   12.6060   -3.7120 F   0  0  0  0  0  0  0  0  0  0  0  0
   -2.0220   13.3890   -4.3280 C   0  0  2  0  0  0  0  0  0  0  0  0
   -0.7770   12.5220   -4.5550 C   0  0  0  0  0  0  0  0  0  0  0  0
   -1.8670   14.6760   -3.4680 C   0  0  0  0  0  0  0  0  0  0  0  0
   -0.7850   14.6330   -2.4630 N   0  0  0  0  0  0  0  0  0  0  0  0
    0.0540   12.4360   -3.2920 C   0  0  0  0  0  0  0  0  0  0  0  0
    0.4240   13.8430   -2.8110 C   0  0  0  0  0  0  0  0  0  0  0  0
   -1.1230   14.5680   -1.0770 C   0  0  0  0  0  0  0  0  0  0  0  0
   -0.0800   14.2750   -0.2800 N   0  0  0  0  0  0  0  0  0  0  0  0
   -2.3830   14.7760   -0.4730 C   0  0  0  0  0  0  0  0  0  0  0  0
   -0.2840   14.1870    1.0490 C   0  0  0  0  0  0  0  0  0  0  0  0
   -2.4050   14.6200    0.9070 C   0  0  0  0  0  0  0  0  0  0  0  0
   -3.8100   15.1410   -0.8940 C   0  0  0  0  0  0  0  0  0  0  0  0
   -1.4070   14.3450    1.6900 N   0  0  0  0  0  0  0  0  0  0  0  0
   -3.6540   14.7750    1.4460 N   0  0  0  0  0  0  0  0  0  0  0  0
   -4.5710   14.5500    0.3500 C   0  0  2  0  0  0  0  0  0  0  0  0
   -5.1190   13.1420    0.0070 C   0  0  0  0  0  0  0  0  0  0  0  0
   -5.6890   15.1230    1.1410 C   0  0  0  0  0  0  0  0  0  0  0  0
   -6.3630   13.2670   -0.8080 N   0  0  0  0  0  0  0  0  0  0  0  0
   -6.9890   14.7810    0.9990 C   0  0  0  0  0  0  0  0  0  0  0  0
   -7.4630   13.8020   -0.0070 C   0  0  0  0  0  0  0  0  0  0  0  0
  2  1  1  1
  2  3  1  0
  2  4  1  0
  4  5  1  0
  3  6  1  0
  5  7  1  0
  6  7  1  0
  5  8  1  0
  8  9  2  0
  8 10  1  0
  9 11  1  0
 10 12  2  0
 10 13  1  0
 11 14  2  0
 12 14  1  0
 12 15  1  0
 16 13  1  6
 15 16  1  0
 16 17  1  0
 16 18  1  0
 17 19  1  0
 18 20  2  0
 19 21  1  0
 20 21  1  0
M  END
