mac-x0116-mac-x0347
     RDKit          3D

 30 34  0  0  0  0  0  0  0  0999 V2000
   -7.2550   14.4970    2.9110 C   0  0  0  0  0  0  0  0  0  0  0  0
   -6.9430   13.0600    2.5080 C   0  0  2  0  0  0  0  0  0  0  0  0
   -7.3070   12.7670    1.0440 C   0  0  2  0  0  0  0  0  0  0  0  0
   -7.6790   11.9910    3.3140 C   0  0  0  0  0  0  0  0  0  0  0  0
   -7.7430   10.8640    2.3370 C   0  0  0  0  0  0  0  0  0  0  0  0
   -7.5360   11.2840    1.0850 C   0  0  0  0  0  0  0  0  0  0  0  0
   -6.1830   13.2090    0.1740 C   0  0  0  0  0  0  0  0  0  0  0  0
   -5.0990   13.8670    0.8360 C   0  0  0  0  0  0  0  0  0  0  0  0
   -6.1480   12.9960   -1.2590 C   0  0  0  0  0  0  0  0  0  0  0  0
   -4.0710   14.2470    0.0210 C   0  0  0  0  0  0  0  0  0  0  0  0
   -5.0190   13.4500   -1.9630 C   0  0  0  0  0  0  0  0  0  0  0  0
   -2.8120   14.8520   -0.0310 C   0  0  0  0  0  0  0  0  0  0  0  0
   -4.4510   13.5100   -3.3090 C   0  0  0  0  0  0  0  0  0  0  0  0
   -4.1000   14.0250   -1.2630 C   0  0  0  0  0  0  0  0  0  0  0  0
   -2.7790   15.5970   -1.1720 N   0  0  0  0  0  0  0  0  0  0  0  0
   -1.7650   14.7500    0.7060 C   0  0  0  0  0  0  0  0  0  0  0  0
   -3.0320   13.4580   -3.3020 C   0  0  0  0  0  0  0  0  0  0  0  0
   -5.0510   13.6330   -4.5510 C   0  0  0  0  0  0  0  0  0  0  0  0
   -1.6350   16.0760   -1.6510 C   0  0  0  0  0  0  0  0  0  0  0  0
   -0.5860   15.3950    0.1500 C   0  0  0  0  0  0  0  0  0  0  0  0
   -1.4340   14.1300    1.8430 N   0  0  0  0  0  0  0  0  0  0  0  0
   -2.2700   13.5280   -4.4590 C   0  0  0  0  0  0  0  0  0  0  0  0
   -4.3350   13.7030   -5.7160 N   0  0  0  0  0  0  0  0  0  0  0  0
   -0.7830   13.4700   -4.3510 C   0  0  0  0  0  0  0  0  0  0  0  0
   -0.5250   16.0440   -1.0350 N   0  0  0  0  0  0  0  0  0  0  0  0
    0.3920   15.1560    0.8960 N   0  0  0  0  0  0  0  0  0  0  0  0
   -0.1680   14.3680    1.8850 C   0  0  0  0  0  0  0  0  0  0  0  0
   -2.9680   13.6510   -5.6460 C   0  0  0  0  0  0  0  0  0  0  0  0
   -0.1530   14.4400   -5.0390 O   0  0  0  0  0  0  0  0  0  0  0  0
   -0.1470   12.6500   -3.7050 O   0  0  0  0  0  0  0  0  0  0  0  0
  2  1  1  1
  2  3  1  0
  2  4  1  0
  4  5  1  0
  3  6  1  0
  5  6  2  0
  3  7  1  6
  7  8  2  0
  7  9  1  0
  8 10  1  0
  9 11  2  0
 10 12  1  0
 11 13  1  0
 10 14  2  0
 11 14  1  0
 12 15  1  0
 12 16  2  0
 13 17  2  0
 13 18  1  0
 15 19  1  0
 16 20  1  0
 16 21  1  0
 17 22  1  0
 18 23  2  0
 22 24  1  0
 19 25  2  0
 20 25  1  0
 20 26  2  0
 21 27  2  0
 26 27  1  0
 22 28  2  0
 23 28  1  0
 24 29  1  0
 24 30  2  0
M  END
