mac-x0357-diamond-x0591_0_A
     RDKit          3D

 25 26  0  0  0  0  0  0  0  0999 V2000
    2.6620   12.9050   -4.3460 C   0  0  0  0  0  0  0  0  0  0  0  0
    1.3000   12.6020   -4.9140 C   0  0  0  0  0  0  0  0  0  0  0  0
    1.1530   12.0010   -6.1620 C   0  0  0  0  0  0  0  0  0  0  0  0
    0.1320   12.9140   -4.2360 C   0  0  0  0  0  0  0  0  0  0  0  0
    2.2390   11.7150   -6.8270 O   0  0  0  0  0  0  0  0  0  0  0  0
    0.1880   13.5520   -2.8700 C   0  0  0  0  0  0  0  0  0  0  0  0
   -1.0760   12.6190   -4.8840 C   0  0  0  0  0  0  0  0  0  0  0  0
   -0.0370   11.6860   -6.7710 C   0  0  0  0  0  0  0  0  0  0  0  0
   -0.4310   14.5350   -2.5260 O   0  0  0  0  0  0  0  0  0  0  0  0
    1.0170   12.9290   -1.9890 O   0  0  0  0  0  0  0  0  0  0  0  0
   -2.3210   12.9610   -4.3170 N   0  0  0  0  0  0  0  0  0  0  0  0
   -1.1780   12.0070   -6.1160 C   0  0  0  0  0  0  0  0  0  0  0  0
   -2.7400   14.3940   -4.6800 S   0  0  1  0  0  0  0  0  0  0  0  0
   -1.3600   15.3270   -4.4460 N   0  0  0  0  0  0  0  0  0  0  0  0
   -3.2770   14.9200   -5.9170 O   0  0  0  0  0  0  0  0  0  0  0  0
   -3.8460   14.5860   -3.3790 C   0  0  0  0  0  0  0  0  0  0  0  0
   -3.3530   14.4720   -2.0860 C   0  0  0  0  0  0  0  0  0  0  0  0
   -5.1690   14.8160   -3.6560 C   0  0  0  0  0  0  0  0  0  0  0  0
   -4.2380   14.5860   -1.0320 C   0  0  0  0  0  0  0  0  0  0  0  0
   -6.0550   14.9350   -2.6080 C   0  0  0  0  0  0  0  0  0  0  0  0
   -5.5900   14.8120   -1.3000 C   0  0  0  0  0  0  0  0  0  0  0  0
   -6.5230   14.9070   -0.1740 C   0  0  0  0  0  0  0  0  0  0  0  0
   -6.0000   14.6780    1.0750 N   0  0  0  0  0  0  0  0  0  0  0  0
   -7.7000   15.1580   -0.3830 O   0  0  0  0  0  0  0  0  0  0  0  0
   -6.8930   14.5460    2.1950 C   0  0  0  0  0  0  0  0  0  0  0  0
  1  2  1  0
  2  3  2  0
  2  4  1  0
  3  5  1  0
  4  6  1  0
  4  7  2  0
  3  8  1  0
  6  9  2  0
  6 10  1  0
  7 11  1  0
  7 12  1  0
  8 12  2  0
 11 13  2  0
 13 14  1  1
 13 15  2  0
 13 16  1  0
 16 17  2  0
 16 18  1  0
 17 19  1  0
 18 20  2  0
 19 21  2  0
 20 21  1  0
 21 22  1  0
 22 23  1  0
 22 24  2  0
 23 25  1  0
M  END
