mac-x0224-mac-x0392
     RDKit          3D

 12 12  0  0  0  0  0  0  0  0999 V2000
   -5.1700   14.8920    1.1610 C   0  0  0  0  0  0  0  0  0  0  0  0
   -3.3790   15.1380    1.2230 S   0  0  0  0  0  0  0  0  0  0  0  0
   -2.9150   14.9650   -0.4840 C   0  0  0  0  0  0  0  0  0  0  0  0
   -1.6150   14.6430   -0.8440 C   0  0  0  0  0  0  0  0  0  0  0  0
   -3.8770   15.1620   -1.4860 C   0  0  0  0  0  0  0  0  0  0  0  0
   -1.2460   14.5110   -2.1870 C   0  0  0  0  0  0  0  0  0  0  0  0
   -3.5260   15.0330   -2.8340 C   0  0  0  0  0  0  0  0  0  0  0  0
    0.1790   14.1640   -2.4400 C   0  0  0  0  0  0  0  0  0  0  0  0
   -2.2120   14.7090   -3.1780 C   0  0  0  0  0  0  0  0  0  0  0  0
   -1.8710   14.5880   -4.5030 O   0  0  0  0  0  0  0  0  0  0  0  0
    0.9830   14.0410   -1.5320 O   0  0  0  0  0  0  0  0  0  0  0  0
    0.5250   13.9860   -3.7280 O   0  0  0  0  0  0  0  0  0  0  0  0
  1  2  1  0
  2  3  1  0
  3  4  2  0
  3  5  1  0
  4  6  1  0
  5  7  2  0
  6  8  1  0
  6  9  2  0
  7  9  1  0
  9 10  1  0
  8 11  2  0
  8 12  1  0
M  END
