mac-x0341-diamond-x0967_0_A
     RDKit          3D

 12 13  0  0  0  0  0  0  0  0999 V2000
   -6.8530   14.7270    2.3300 N   0  0  0  0  0  0  0  0  0  0  0  0
   -6.0930   14.7730    1.2090 C   0  0  0  0  0  0  0  0  0  0  0  0
   -4.8160   14.8400    1.3380 N   0  0  0  0  0  0  0  0  0  0  0  0
   -6.7100   14.7480   -0.0080 N   0  0  0  0  0  0  0  0  0  0  0  0
   -6.0250   15.0070   -1.1710 C   0  0  0  0  0  0  0  0  0  0  0  0
   -4.0160   14.8480    0.2030 C   0  0  0  0  0  0  0  0  0  0  0  0
   -6.5930   15.2660   -2.2190 O   0  0  0  0  0  0  0  0  0  0  0  0
   -4.5570   14.9290   -1.0740 C   0  0  0  0  0  0  0  0  0  0  0  0
   -2.6320   14.7620    0.3520 C   0  0  0  0  0  0  0  0  0  0  0  0
   -1.8060   14.7530   -0.7740 C   0  0  0  0  0  0  0  0  0  0  0  0
   -3.7460   14.9300   -2.2060 C   0  0  0  0  0  0  0  0  0  0  0  0
   -2.3650   14.8380   -2.0510 C   0  0  0  0  0  0  0  0  0  0  0  0
  1  2  1  0
  2  3  2  0
  2  4  1  0
  4  5  1  0
  3  6  1  0
  5  7  2  0
  5  8  1  0
  6  8  2  0
  6  9  1  0
  9 10  2  0
  8 11  1  0
 10 12  1  0
 11 12  2  0
M  END
