mac-x0404-mac-x0204
     RDKit          3D

 17 18  0  0  0  0  0  0  0  0999 V2000
    0.6830   12.4400   -1.5080 O   0  0  0  0  0  0  0  0  0  0  0  0
    0.7910   11.8570   -2.7290 C   0  0  0  0  0  0  0  0  0  0  0  0
    0.4480   10.6970   -2.8980 O   0  0  0  0  0  0  0  0  0  0  0  0
    1.3470   12.6850   -3.8580 C   0  0  0  0  0  0  0  0  0  0  0  0
    1.0510   14.1430   -3.7150 C   0  0  0  0  0  0  0  0  0  0  0  0
    1.7700   14.8710   -3.0340 O   0  0  0  0  0  0  0  0  0  0  0  0
   -0.1740   14.6840   -4.3470 C   0  0  0  0  0  0  0  0  0  0  0  0
   -0.2120   16.0120   -4.7940 C   0  0  0  0  0  0  0  0  0  0  0  0
   -1.2880   13.8390   -4.4720 C   0  0  0  0  0  0  0  0  0  0  0  0
   -1.4030   16.4940   -5.3660 C   0  0  0  0  0  0  0  0  0  0  0  0
   -2.4610   14.3240   -5.0430 C   0  0  0  0  0  0  0  0  0  0  0  0
    0.8780   16.8860   -4.7000 C   0  0  0  0  0  0  0  0  0  0  0  0
   -2.5030   15.6410   -5.4770 C   0  0  0  0  0  0  0  0  0  0  0  0
   -1.4650   17.8160   -5.8190 C   0  0  0  0  0  0  0  0  0  0  0  0
    0.8080   18.1940   -5.1580 C   0  0  0  0  0  0  0  0  0  0  0  0
   -3.6340   16.1470   -6.0420 O   0  0  0  0  0  0  0  0  0  0  0  0
   -0.3700   18.6590   -5.7190 C   0  0  0  0  0  0  0  0  0  0  0  0
  1  2  1  0
  2  3  2  0
  2  4  1  0
  4  5  1  0
  5  6  2  0
  5  7  1  0
  7  8  2  0
  7  9  1  0
  8 10  1  0
  9 11  2  0
  8 12  1  0
 10 13  2  0
 11 13  1  0
 10 14  1  0
 12 15  2  0
 13 16  1  0
 14 17  2  0
 15 17  1  0
M  END
