mac-x0321-mac-x0375
     RDKit          3D

 22 23  0  0  0  0  0  0  0  0999 V2000
   -4.3110   15.3010    1.7180 Cl  0  0  0  0  0  0  0  0  0  0  0  0
   -4.3090   15.2130    0.0070 C   0  0  0  0  0  0  0  0  0  0  0  0
   -3.1170   14.9500   -0.6570 C   0  0  0  0  0  0  0  0  0  0  0  0
   -5.4910   15.4070   -0.7010 C   0  0  0  0  0  0  0  0  0  0  0  0
   -3.1080   14.8820   -2.0510 C   0  0  0  0  0  0  0  0  0  0  0  0
   -5.4880   15.3400   -2.0850 C   0  0  0  0  0  0  0  0  0  0  0  0
   -1.8740   14.6090   -2.8350 C   0  0  0  0  0  0  0  0  0  0  0  0
   -4.2970   15.0780   -2.7630 C   0  0  0  0  0  0  0  0  0  0  0  0
   -0.8270   14.3240   -2.0240 O   0  0  0  0  0  0  0  0  0  0  0  0
   -1.8380   14.6440   -4.0510 O   0  0  0  0  0  0  0  0  0  0  0  0
    0.4360   14.3050   -2.7030 C   0  0  0  0  0  0  0  0  0  0  0  0
    1.1120   13.0430   -2.5130 O   0  0  0  0  0  0  0  0  0  0  0  0
    0.7730   12.0520   -3.3930 C   0  0  0  0  0  0  0  0  0  0  0  0
    0.5240   10.9030   -3.0560 O   0  0  0  0  0  0  0  0  0  0  0  0
    0.7570   12.5860   -4.8320 C   0  0  0  0  0  0  0  0  0  0  0  0
    0.7390   11.6000   -5.8610 O   0  0  0  0  0  0  0  0  0  0  0  0
   -0.3630   10.7960   -6.0400 C   0  0  0  0  0  0  0  0  0  0  0  0
   -0.3730    9.5570   -6.6830 C   0  0  0  0  0  0  0  0  0  0  0  0
   -1.5610   11.2910   -5.5210 C   0  0  0  0  0  0  0  0  0  0  0  0
   -1.5560    8.8260   -6.8010 C   0  0  0  0  0  0  0  0  0  0  0  0
   -2.7460   10.5580   -5.6430 C   0  0  0  0  0  0  0  0  0  0  0  0
   -2.7440    9.3270   -6.2790 C   0  0  0  0  0  0  0  0  0  0  0  0
  1  2  1  0
  2  3  2  0
  2  4  1  0
  3  5  1  0
  4  6  2  0
  5  7  1  0
  5  8  2  0
  6  8  1  0
  7  9  1  0
  7 10  2  0
  9 11  1  0
 11 12  1  0
 12 13  1  0
 13 14  2  0
 13 15  1  0
 15 16  1  0
 16 17  1  0
 17 18  2  0
 17 19  1  0
 18 20  1  0
 19 21  2  0
 20 22  2  0
 21 22  1  0
M  END
