mac-x0567-mac-x0277
     RDKit          3D

 24 26  0  0  0  0  0  0  0  0999 V2000
    0.0010   14.5770   -0.2500 N   0  0  0  0  0  0  0  0  0  0  0  0
   -1.2780   14.7560    0.1980 C   0  0  0  0  0  0  0  0  0  0  0  0
   -1.4370   14.8100    1.5880 N   0  0  0  0  0  0  0  0  0  0  0  0
   -2.4010   14.8950   -0.5230 C   0  0  0  0  0  0  0  0  0  0  0  0
   -0.0710   14.6190    1.2240 C   0  0  0  0  0  0  0  0  0  0  0  0
   -2.8190   14.9990    1.5770 N   0  0  0  0  0  0  0  0  0  0  0  0
   -3.3980   15.0660    0.4040 C   0  0  0  0  0  0  0  0  0  0  0  0
   -2.5120   14.8780   -1.9040 C   0  0  0  0  0  0  0  0  0  0  0  0
    0.0350   13.5390    0.1300 C   0  0  0  0  0  0  0  0  0  0  0  0
   -4.7260   15.2670    0.0290 C   0  0  0  0  0  0  0  0  0  0  0  0
   -3.8420   15.0810   -2.2960 C   0  0  0  0  0  0  0  0  0  0  0  0
    0.5610   13.8750   -1.2390 N   0  0  0  0  0  0  0  0  0  0  0  0
   -4.9130   15.2720   -1.3690 C   0  0  0  0  0  0  0  0  0  0  0  0
    0.6670   12.9630   -2.1730 C   0  0  0  0  0  0  0  0  0  0  0  0
    0.2930   11.7080   -1.8450 O   0  0  0  0  0  0  0  0  0  0  0  0
    1.1380   13.1400   -3.6070 C   0  0  0  0  0  0  0  0  0  0  0  0
    0.5600   14.4380   -4.1160 C   0  0  0  0  0  0  0  0  0  0  0  0
   -0.7810   14.4940   -4.5170 C   0  0  0  0  0  0  0  0  0  0  0  0
    1.3320   15.6050   -4.1790 C   0  0  0  0  0  0  0  0  0  0  0  0
   -1.3450   15.6910   -4.9640 C   0  0  0  0  0  0  0  0  0  0  0  0
    0.7680   16.8040   -4.6270 C   0  0  0  0  0  0  0  0  0  0  0  0
   -3.0050   15.6710   -5.4330 Cl  0  0  0  0  0  0  0  0  0  0  0  0
   -0.5700   16.8480   -5.0160 C   0  0  0  0  0  0  0  0  0  0  0  0
   -1.2200   18.3550   -5.5500 Cl  0  0  0  0  0  0  0  0  0  0  0  0
  1  2  1  0
  2  3  1  0
  2  4  2  0
  3  5  1  0
  3  6  1  0
  4  7  1  0
  6  7  2  0
  4  8  1  0
  5  9  1  0
  7 10  1  0
  8 11  2  0
  9 12  1  0
 10 13  2  0
 11 13  1  0
 12 14  2  3
 14 15  1  0
 14 16  1  0
 16 17  1  0
 17 18  2  0
 17 19  1  0
 18 20  1  0
 19 21  2  0
 20 22  1  0
 20 23  2  0
 21 23  1  0
 23 24  1  0
M  END
