mac-x0396-mac-x0326
     RDKit          3D

 24 26  0  0  0  0  0  0  0  0999 V2000
   -3.2030   14.6420    2.4370 N   0  0  0  0  0  0  0  0  0  0  0  0
   -3.4650   14.7210    1.1410 C   0  0  0  0  0  0  0  0  0  0  0  0
   -2.5390   14.9540    0.3160 N   0  0  0  0  0  0  0  0  0  0  0  0
   -4.9190   14.5200    0.7350 C   0  0  0  0  0  0  0  0  0  0  0  0
   -5.3660   14.0470   -0.5060 C   0  0  0  0  0  0  0  0  0  0  0  0
   -5.9060   14.8170    1.6640 C   0  0  0  0  0  0  0  0  0  0  0  0
   -2.9470   15.0020   -0.9200 C   0  0  0  0  0  0  0  0  0  0  0  0
   -6.6870   13.8740   -0.8320 N   0  0  0  0  0  0  0  0  0  0  0  0
   -7.2560   14.6480    1.3610 C   0  0  0  0  0  0  0  0  0  0  0  0
   -2.0440   14.8770   -1.9430 C   0  0  0  0  0  0  0  0  0  0  0  0
   -4.2780   15.1710   -1.1240 C   0  0  0  0  0  0  0  0  0  0  0  0
   -7.5950   14.1810    0.1100 C   0  0  0  0  0  0  0  0  0  0  0  0
   -2.5040   14.9240   -3.2420 C   0  0  0  0  0  0  0  0  0  0  0  0
   -0.3320   14.6620   -1.9050 S   0  0  0  0  0  0  0  0  0  0  0  0
   -4.7630   15.2080   -2.3760 C   0  0  0  0  0  0  0  0  0  0  0  0
   -6.4640   15.3920   -2.5230 Cl  0  0  0  0  0  0  0  0  0  0  0  0
   -0.3380   14.6510   -3.6200 C   0  0  0  0  0  0  0  0  0  0  0  0
   -1.5170   14.7960   -4.1970 N   0  0  0  0  0  0  0  0  0  0  0  0
   -3.8970   15.0900   -3.4710 C   0  0  0  0  0  0  0  0  0  0  0  0
    0.9410   14.4770   -4.3800 C   0  0  0  0  0  0  0  0  0  0  0  0
    1.2570   12.9980   -4.5810 C   0  0  0  0  0  0  0  0  0  0  0  0
    1.1890   12.2480   -3.2780 C   0  0  0  0  0  0  0  0  0  0  0  0
    0.3580   11.1860   -3.3090 O   0  0  0  0  0  0  0  0  0  0  0  0
    1.7920   12.5120   -2.2570 O   0  0  0  0  0  0  0  0  0  0  0  0
  1  2  1  0
  2  3  2  3
  2  4  1  0
  4  5  2  0
  4  6  1  0
  3  7  1  0
  5  8  1  0
  6  9  2  0
  7 10  1  0
  7 11  2  0
  8 12  2  0
  9 12  1  0
 10 13  2  0
 10 14  1  0
 11 15  1  0
 15 16  1  0
 14 17  1  0
 13 18  1  0
 17 18  2  0
 13 19  1  0
 15 19  2  0
 17 20  1  0
 20 21  1  0
 21 22  1  0
 22 23  1  0
 22 24  2  0
M  END
