mac-x0527-diamond-x0950_1_A
     RDKit          3D

 22 23  0  0  0  0  0  0  0  0999 V2000
   -4.4000   15.1040   -3.6390 O   0  0  0  0  0  0  0  0  0  0  0  0
   -3.5600   15.0680   -2.7610 C   0  0  0  0  0  0  0  0  0  0  0  0
   -2.2350   15.0520   -3.0480 N   0  0  0  0  0  0  0  0  0  0  0  0
   -3.9780   15.0460   -1.3360 C   0  0  0  0  0  0  0  0  0  0  0  0
   -1.8900   15.0660   -4.4430 C   0  0  0  0  0  0  0  0  0  0  0  0
   -5.3320   15.1250   -1.0900 C   0  0  0  0  0  0  0  0  0  0  0  0
   -3.0420   14.9470   -0.3430 N   0  0  0  0  0  0  0  0  0  0  0  0
   -1.7440   13.6630   -4.9470 C   0  0  0  0  0  0  0  0  0  0  0  0
   -5.8380   15.1100    0.1600 N   0  0  0  0  0  0  0  0  0  0  0  0
   -3.5630   14.9370    0.9110 C   0  0  0  0  0  0  0  0  0  0  0  0
   -2.7780   12.7970   -5.3300 C   0  0  0  0  0  0  0  0  0  0  0  0
   -0.4750   13.2180   -5.0180 C   0  0  0  0  0  0  0  0  0  0  0  0
   -4.9260   15.0180    1.1520 C   0  0  0  0  0  0  0  0  0  0  0  0
   -2.4810   11.4900   -5.7750 C   0  0  0  0  0  0  0  0  0  0  0  0
   -0.1770   11.9630   -5.4380 C   0  0  0  0  0  0  0  0  0  0  0  0
    1.0950   11.6790   -5.4140 O   0  0  0  0  0  0  0  0  0  0  0  0
   -1.1500   11.0660   -5.8300 C   0  0  0  0  0  0  0  0  0  0  0  0
    1.4990   12.5980   -4.4020 C   0  0  2  0  0  0  0  0  0  0  0  0
    2.9190   13.0350   -4.4980 C   0  0  0  0  0  0  0  0  0  0  0  0
    1.1590   12.0260   -3.0260 C   0  0  0  0  0  0  0  0  0  0  0  0
    0.5240   11.0160   -2.7630 O   0  0  0  0  0  0  0  0  0  0  0  0
    1.6480   12.7900   -2.0230 O   0  0  0  0  0  0  0  0  0  0  0  0
  1  2  2  0
  2  3  1  0
  2  4  1  0
  3  5  1  0
  4  6  2  0
  4  7  1  0
  5  8  1  0
  6  9  1  0
  7 10  2  0
  8 11  2  0
  8 12  1  0
  9 13  2  0
 10 13  1  0
 11 14  1  0
 12 15  2  0
 15 16  1  0
 14 17  2  0
 15 17  1  0
 16 18  1  0
 18 19  1  1
 18 20  1  0
 20 21  2  0
 20 22  1  0
M  END
