mac-x0357-mac-x0522
     RDKit          3D

 28 30  0  0  0  0  0  0  0  0999 V2000
    2.3940   13.0420   -4.6840 C   0  0  0  0  0  0  0  0  0  0  0  0
    1.0220   12.4660   -4.9130 C   0  0  0  0  0  0  0  0  0  0  0  0
    0.6830   11.7470   -6.0750 C   0  0  0  0  0  0  0  0  0  0  0  0
   -0.0020   12.6200   -3.9580 C   0  0  0  0  0  0  0  0  0  0  0  0
    1.5590   11.4980   -7.0900 O   0  0  0  0  0  0  0  0  0  0  0  0
    0.2210   13.3480   -2.6930 C   0  0  0  0  0  0  0  0  0  0  0  0
   -1.2820   12.0890   -4.1540 C   0  0  0  0  0  0  0  0  0  0  0  0
   -0.5940   11.2220   -6.2720 C   0  0  0  0  0  0  0  0  0  0  0  0
   -0.4010   14.3250   -2.3300 O   0  0  0  0  0  0  0  0  0  0  0  0
    1.2150   12.7710   -1.9870 O   0  0  0  0  0  0  0  0  0  0  0  0
    1.0740   10.3190   -7.7750 C   0  0  0  0  0  0  0  0  0  0  0  0
   -1.5760   11.3890   -5.3160 C   0  0  0  0  0  0  0  0  0  0  0  0
    0.6520   10.6620   -9.1910 C   0  0  0  0  0  0  0  0  0  0  0  0
    0.6410    9.4180  -10.0700 C   0  0  0  0  0  0  0  0  0  0  0  0
    1.5840    9.6170  -11.1450 N   0  0  0  0  0  0  0  0  0  0  0  0
    2.6520    8.9450  -11.4220 C   0  0  0  0  0  0  0  0  0  0  0  0
    3.1880    7.8330  -10.7610 N   0  0  0  0  0  0  0  0  0  0  0  0
    3.3280    9.5620  -12.6180 C   0  0  0  0  0  0  0  0  0  0  0  0
    2.7470    7.0550   -9.7150 C   0  0  0  0  0  0  0  0  0  0  0  0
    4.4220    8.9710  -13.2590 C   0  0  0  0  0  0  0  0  0  0  0  0
    2.8280   10.7880  -13.0890 C   0  0  0  0  0  0  0  0  0  0  0  0
    3.4250    5.9920   -9.3150 N   0  0  0  0  0  0  0  0  0  0  0  0
    1.3090    7.3070   -8.7800 S   0  0  0  0  0  0  0  0  0  0  0  0
    5.0020    9.6090  -14.3590 C   0  0  0  0  0  0  0  0  0  0  0  0
    3.4100   11.4180  -14.1820 C   0  0  0  0  0  0  0  0  0  0  0  0
    1.6310    5.9340   -7.8190 C   0  0  0  0  0  0  0  0  0  0  0  0
    2.8010    5.3580   -8.2490 C   0  0  0  0  0  0  0  0  0  0  0  0
    4.4980   10.8280  -14.8190 C   0  0  0  0  0  0  0  0  0  0  0  0
  1  2  1  0
  2  3  2  0
  2  4  1  0
  3  5  1  0
  4  6  1  0
  4  7  2  0
  3  8  1  0
  6  9  2  0
  6 10  1  0
  5 11  1  0
  7 12  1  0
  8 12  2  0
 11 13  1  0
 13 14  1  0
 14 15  1  0
 15 16  2  3
 16 17  1  0
 16 18  1  0
 17 19  1  0
 18 20  2  0
 18 21  1  0
 19 22  2  0
 19 23  1  0
 20 24  1  0
 21 25  2  0
 23 26  1  0
 22 27  1  0
 26 27  2  0
 24 28  2  0
 25 28  1  0
M  END
