mac-x1493-mac-x0455
     RDKit          3D

 22 24  0  0  0  0  0  0  0  0999 V2000
   -0.6820   14.5720   -1.7790 C   0  0  0  0  0  0  0  0  0  0  0  0
   -2.0750   14.7750   -2.4230 C   0  0  0  0  0  0  0  0  0  0  0  0
   -2.1680   14.8840   -3.6990 N   0  0  0  0  0  0  0  0  0  0  0  0
   -0.0820   15.3580   -1.0920 O   0  0  0  0  0  0  0  0  0  0  0  0
   -0.1350   13.3890   -2.1010 O   0  0  0  0  0  0  0  0  0  0  0  0
   -3.3660   14.7780   -1.6560 C   0  0  0  0  0  0  0  0  0  0  0  0
   -0.9310   14.7800   -4.4560 C   0  0  0  0  0  0  0  0  0  0  0  0
   -3.4730   14.9200   -0.2660 C   0  0  0  0  0  0  0  0  0  0  0  0
   -4.5570   14.6100   -2.3560 C   0  0  0  0  0  0  0  0  0  0  0  0
   -4.7470   14.8690    0.3420 C   0  0  0  0  0  0  0  0  0  0  0  0
   -5.7890   14.5620   -1.7970 N   0  0  0  0  0  0  0  0  0  0  0  0
   -0.8790   13.4050   -5.0860 C   0  0  0  0  0  0  0  0  0  0  0  0
   -5.8850   14.6810   -0.4730 C   0  0  0  0  0  0  0  0  0  0  0  0
   -4.9130   14.9920    1.7250 C   0  0  0  0  0  0  0  0  0  0  0  0
   -2.0490   12.6390   -5.2290 C   0  0  0  0  0  0  0  0  0  0  0  0
    0.3280   12.8700   -5.5390 C   0  0  0  0  0  0  0  0  0  0  0  0
   -7.1400   14.6130    0.1150 C   0  0  0  0  0  0  0  0  0  0  0  0
   -6.1900   14.9200    2.2960 C   0  0  0  0  0  0  0  0  0  0  0  0
   -2.0130   11.3680   -5.7960 C   0  0  0  0  0  0  0  0  0  0  0  0
    0.3620   11.6030   -6.1130 C   0  0  0  0  0  0  0  0  0  0  0  0
   -7.3050   14.7270    1.4940 C   0  0  0  0  0  0  0  0  0  0  0  0
   -0.8040   10.8470   -6.2390 C   0  0  0  0  0  0  0  0  0  0  0  0
  1  2  1  0
  2  3  2  3
  1  4  2  0
  1  5  1  0
  2  6  1  0
  3  7  1  0
  6  8  2  0
  6  9  1  0
  8 10  1  0
  9 11  2  0
  7 12  1  0
 10 13  2  0
 11 13  1  0
 10 14  1  0
 12 15  2  0
 12 16  1  0
 13 17  1  0
 14 18  2  0
 15 19  1  0
 16 20  2  0
 17 21  2  0
 18 21  1  0
 19 22  2  0
 20 22  1  0
M  END
