mac-x0564-diamond-x0962_2_B
     RDKit          3D

 24 27  0  0  0  0  0  0  0  0999 V2000
    0.7000   14.2640   -1.0120 O   0  0  0  0  0  0  0  0  0  0  0  0
   -0.0360   14.3490   -1.9820 C   0  0  0  0  0  0  0  0  0  0  0  0
    0.4460   14.2480   -3.2890 N   0  0  0  0  0  0  0  0  0  0  0  0
   -1.4690   14.5420   -1.9170 C   0  0  0  0  0  0  0  0  0  0  0  0
   -2.2700   14.6490   -3.0200 C   0  0  0  0  0  0  0  0  0  0  0  0
   -0.3780   14.3640   -4.2820 C   0  0  0  0  0  0  0  0  0  0  0  0
   -2.2210   14.6400   -0.7720 O   0  0  0  0  0  0  0  0  0  0  0  0
   -1.7350   14.5830   -4.2550 N   0  0  0  0  0  0  0  0  0  0  0  0
   -3.5300   14.8020   -1.1840 C   0  0  0  0  0  0  0  0  0  0  0  0
   -3.5880   14.8120   -2.5800 C   0  0  0  0  0  0  0  0  0  0  0  0
   -4.8240   14.9640   -3.2030 C   0  0  0  0  0  0  0  0  0  0  0  0
   -4.6720   14.9360   -0.3670 C   0  0  0  0  0  0  0  0  0  0  0  0
   -5.9700   15.0970   -2.4230 C   0  0  0  0  0  0  0  0  0  0  0  0
   -5.9250   15.0830   -1.0330 C   0  0  0  0  0  0  0  0  0  0  0  0
   -7.2460   15.2240   -0.2940 C   0  0  0  0  0  0  0  0  0  0  0  0
   -8.3420   14.2300   -0.6720 C   0  0  0  0  0  0  0  0  0  0  0  0
   -9.3750   14.0170    0.4690 C   0  0  0  0  0  0  0  0  0  0  0  0
   -9.8370   15.1910    1.3900 C   0  0  2  0  0  0  0  0  0  0  0  0
   -9.9070   16.4890    0.7450 N   0  0  0  0  0  0  0  0  0  0  0  0
   -9.0890   15.2100    2.6870 C   0  0  0  0  0  0  0  0  0  0  0  0
   -9.1300   16.2420    3.6020 N   0  0  0  0  0  0  0  0  0  0  0  0
   -8.2470   14.2880    3.2600 C   0  0  0  0  0  0  0  0  0  0  0  0
   -8.3280   15.8930    4.6550 C   0  0  0  0  0  0  0  0  0  0  0  0
   -7.7890   14.7150    4.4720 N   0  0  0  0  0  0  0  0  0  0  0  0
  1  2  2  0
  2  3  1  0
  2  4  1  0
  4  5  2  0
  3  6  2  0
  4  7  1  0
  5  8  1  0
  6  8  1  0
  7  9  1  0
  5 10  1  0
  9 10  2  0
 10 11  1  0
  9 12  1  0
 11 13  2  0
 12 14  2  0
 13 14  1  0
 14 15  1  0
 15 16  1  0
 16 17  1  0
 17 18  1  0
 18 19  1  6
 18 20  1  0
 20 21  1  0
 20 22  2  0
 21 23  1  0
 22 24  1  0
 23 24  2  0
M  END
