mac-x0510-diamond-x0628_0_A
     RDKit          3D

 25 27  0  0  0  0  0  0  0  0999 V2000
   -6.1570   14.9210    0.7600 O   0  0  0  0  0  0  0  0  0  0  0  0
   -4.9740   15.0720    0.4670 C   0  0  0  0  0  0  0  0  0  0  0  0
   -4.5860   15.4070   -0.8060 N   0  0  0  0  0  0  0  0  0  0  0  0
   -3.9730   14.9110    1.3850 N   0  0  0  0  0  0  0  0  0  0  0  0
   -2.6850   14.8220    0.9580 C   0  0  0  0  0  0  0  0  0  0  0  0
   -3.3630   15.1230   -1.3630 C   0  0  0  0  0  0  0  0  0  0  0  0
   -3.3040   15.0880   -2.6390 N   0  0  0  0  0  0  0  0  0  0  0  0
   -2.3630   14.9190   -0.3690 C   0  0  0  0  0  0  0  0  0  0  0  0
   -1.6080   14.6380    1.7550 N   0  0  0  0  0  0  0  0  0  0  0  0
   -2.0900   14.7900   -3.3840 C   0  0  0  0  0  0  0  0  0  0  0  0
   -1.0010   14.7850   -0.3820 N   0  0  0  0  0  0  0  0  0  0  0  0
   -0.5960   14.6230    0.9190 C   0  0  0  0  0  0  0  0  0  0  0  0
   -1.6830   13.3270   -3.2000 C   0  0  0  0  0  0  0  0  0  0  0  0
   -2.4520   12.4010   -4.1340 C   0  0  0  0  0  0  0  0  0  0  0  0
   -1.5970   11.6350   -5.1010 C   0  0  0  0  0  0  0  0  0  0  0  0
   -1.8980   10.4720   -5.6410 N   0  0  0  0  0  0  0  0  0  0  0  0
   -0.3640   12.0310   -5.5800 N   0  0  0  0  0  0  0  0  0  0  0  0
    0.4160   13.2210   -5.3050 C   0  0  0  0  0  0  0  0  0  0  0  0
   -0.8250   10.1900   -6.4430 C   0  0  0  0  0  0  0  0  0  0  0  0
    0.1330   11.1170   -6.4380 N   0  0  0  0  0  0  0  0  0  0  0  0
   -0.7310    8.9630   -7.2480 C   0  0  0  0  0  0  0  0  0  0  0  0
    1.6080   12.9360   -4.3940 C   0  0  0  0  0  0  0  0  0  0  0  0
    1.1840   12.2090   -3.1410 C   0  0  0  0  0  0  0  0  0  0  0  0
    0.5180   11.1860   -3.0970 O   0  0  0  0  0  0  0  0  0  0  0  0
    1.6230   12.8190   -2.0180 O   0  0  0  0  0  0  0  0  0  0  0  0
  1  2  2  0
  2  3  1  0
  2  4  1  0
  4  5  1  0
  3  6  1  0
  6  7  2  3
  5  8  2  0
  6  8  1  0
  5  9  1  0
  7 10  1  0
  8 11  1  0
  9 12  2  0
 11 12  1  0
 10 13  1  0
 13 14  1  0
 14 15  1  0
 15 16  2  0
 15 17  1  0
 17 18  1  0
 16 19  1  0
 17 20  1  0
 19 20  2  0
 19 21  1  0
 18 22  1  0
 22 23  1  0
 23 24  2  0
 23 25  1  0
M  END
