mac-x0193-diamond-x0371_0_A
     RDKit          3D

 35 38  0  0  0  0  0  0  0  0999 V2000
    0.4230   10.5060   -3.1040 O   0  0  0  0  0  0  0  0  0  0  0  0
    0.6690   11.8330   -3.1960 C   0  0  0  0  0  0  0  0  0  0  0  0
    0.7060   12.5540   -2.1210 N   0  0  0  0  0  0  0  0  0  0  0  0
    0.8770   12.3880   -4.6170 C   0  0  0  0  0  0  0  0  0  0  0  0
    0.2680   11.5690   -5.6750 N   0  0  0  0  0  0  0  0  0  0  0  0
    0.9340   13.9890   -2.1450 C   0  0  0  0  0  0  0  0  0  0  0  0
    0.8320   11.3500   -6.9140 C   0  0  0  0  0  0  0  0  0  0  0  0
   -0.4320   14.6940   -2.0770 C   0  0  0  0  0  0  0  0  0  0  0  0
    1.9860   11.6320   -7.1800 O   0  0  0  0  0  0  0  0  0  0  0  0
   -0.0750   10.7800   -7.7990 N   0  0  0  0  0  0  0  0  0  0  0  0
   -1.1220   14.6770   -0.6840 C   0  0  0  0  0  0  0  0  0  0  0  0
    0.2430    9.7520   -8.8010 C   0  0  0  0  0  0  0  0  0  0  0  0
   -2.6580   14.7910   -0.6940 C   0  0  0  0  0  0  0  0  0  0  0  0
    1.6990    9.3880   -8.8140 C   0  0  0  0  0  0  0  0  0  0  0  0
   -0.1840   10.2010  -10.2090 C   0  0  0  0  0  0  0  0  0  0  0  0
   -3.3930   14.5160    0.4810 C   0  0  0  0  0  0  0  0  0  0  0  0
   -3.3560   15.1560   -1.8690 C   0  0  0  0  0  0  0  0  0  0  0  0
    2.0120    8.2020   -9.7340 C   0  0  0  0  0  0  0  0  0  0  0  0
    0.6750    9.6120  -11.3430 C   0  0  0  0  0  0  0  0  0  0  0  0
   -4.7900   14.6010    0.4000 C   0  0  0  0  0  0  0  0  0  0  0  0
   -4.7600   15.2390   -1.9070 C   0  0  0  0  0  0  0  0  0  0  0  0
    1.2090    8.2150  -11.0300 C   0  0  0  0  0  0  0  0  0  0  0  0
   -5.7720   14.3830    1.3310 N   0  0  0  0  0  0  0  0  0  0  0  0
   -5.4840   14.9450   -0.7480 C   0  0  0  0  0  0  0  0  0  0  0  0
   -6.9950   14.5810    0.7330 C   0  0  0  0  0  0  0  0  0  0  0  0
   -6.8430   14.9320   -0.5320 N   0  0  0  0  0  0  0  0  0  0  0  0
   -8.2980   14.4090    1.4360 C   0  0  0  0  0  0  0  0  0  0  0  0
   -8.1150   14.6770    2.8440 N   0  0  0  0  0  0  0  0  0  0  0  0
   -8.7830   15.5790    3.6300 C   0  0  0  0  0  0  0  0  0  0  0  0
   -9.5010   16.3750    3.0240 O   0  0  0  0  0  0  0  0  0  0  0  0
   -8.6560   15.5830    5.0740 C   0  0  0  0  0  0  0  0  0  0  0  0
   -8.0490   14.4890    5.6330 O   0  0  0  0  0  0  0  0  0  0  0  0
   -9.0130   16.4560    6.0810 C   0  0  0  0  0  0  0  0  0  0  0  0
   -8.6030   15.8650    7.3060 C   0  0  0  0  0  0  0  0  0  0  0  0
   -8.0180   14.6660    6.9680 C   0  0  0  0  0  0  0  0  0  0  0  0
  1  2  1  0
  2  3  2  3
  2  4  1  0
  4  5  1  0
  3  6  1  0
  5  7  1  0
  6  8  1  0
  7  9  2  0
  7 10  1  0
  8 11  1  0
 10 12  1  0
 11 13  1  0
 12 14  1  0
 12 15  1  0
 13 16  2  0
 13 17  1  0
 14 18  1  0
 15 19  1  0
 16 20  1  0
 17 21  2  0
 18 22  1  0
 19 22  1  0
 20 23  1  0
 20 24  2  0
 21 24  1  0
 23 25  1  0
 24 26  1  0
 25 26  2  0
 25 27  1  0
 27 28  1  0
 28 29  1  0
 29 30  2  0
 29 31  1  0
 31 32  1  0
 31 33  2  0
 33 34  1  0
 32 35  1  0
 34 35  2  0
M  END
