mac-x0115-mac-x0397
     RDKit          3D

 23 25  0  0  0  0  0  0  0  0999 V2000
   -1.4340   18.7210   -5.2780 C   0  0  0  0  0  0  0  0  0  0  0  0
   -0.4430   17.6870   -5.7800 C   0  0  0  0  0  0  0  0  0  0  0  0
    0.9910   18.1000   -5.5090 C   0  0  0  0  0  0  0  0  0  0  0  0
   -0.6590   16.4220   -5.1430 O   0  0  0  0  0  0  0  0  0  0  0  0
    0.5120   15.8070   -4.5850 C   0  0  0  0  0  0  0  0  0  0  0  0
    0.0700   14.5330   -3.8440 C   0  0  0  0  0  0  0  0  0  0  0  0
   -0.2560   14.7400   -2.3980 N   0  0  0  0  0  0  0  0  0  0  0  0
    0.7840   14.5670   -1.4880 C   0  0  0  0  0  0  0  0  0  0  0  0
   -1.5870   14.2300   -1.9860 C   0  0  1  0  0  0  0  0  0  0  0  0
    2.3790   14.1640   -1.8590 S   0  0  0  0  0  0  0  0  0  0  0  0
    0.4770   14.7210   -0.1610 N   0  0  0  0  0  0  0  0  0  0  0  0
   -1.8760   14.1310   -0.4720 C   0  0  1  0  0  0  0  0  0  0  0  0
   -2.8450   14.9160   -2.5970 C   0  0  0  0  0  0  0  0  0  0  0  0
   -0.7680   14.6320    0.4170 C   0  0  0  0  0  0  0  0  0  0  0  0
   -3.3950   14.4420   -0.2290 C   0  0  1  0  0  0  0  0  0  0  0  0
   -3.9750   14.5260   -1.6590 C   0  0  1  0  0  0  0  0  0  0  0  0
   -0.9480   14.9080    1.6110 O   0  0  0  0  0  0  0  0  0  0  0  0
   -5.5060   15.4090   -1.8990 Cl  0  0  0  0  0  0  0  0  0  0  0  0
   -4.1240   13.3070    0.4740 C   0  0  0  0  0  0  0  0  0  0  0  0
   -3.8930   15.6740    1.0390 S   0  0  0  0  0  0  0  0  0  0  0  0
   -5.5770   15.0280    0.9930 C   0  0  1  0  0  0  0  0  0  0  0  0
   -5.5300   13.6750    0.5940 N   0  0  0  0  0  0  0  0  0  0  0  0
   -6.2340   15.0130    2.2690 N   0  0  0  0  0  0  0  0  0  0  0  0
  1  2  1  0
  2  3  1  0
  2  4  1  0
  4  5  1  0
  5  6  1  0
  6  7  1  0
  7  8  1  0
  7  9  1  0
  8 10  2  0
  8 11  1  0
  9 12  1  0
  9 13  1  6
 11 14  1  0
 12 14  1  1
 12 15  1  0
 13 16  1  0
 15 16  1  0
 14 17  2  0
 16 18  1  1
 15 19  1  1
 15 20  1  0
 20 21  1  0
 19 22  1  0
 21 22  1  0
 21 23  1  1
M  END
