mac-x0306-mac-x0375
     RDKit          3D

 25 27  0  0  0  0  0  0  0  0999 V2000
    1.2300   13.0300   -2.5460 O   0  0  0  0  0  0  0  0  0  0  0  0
    0.8560   12.0650   -3.4300 C   0  0  0  0  0  0  0  0  0  0  0  0
    0.5320   10.9280   -3.1080 O   0  0  0  0  0  0  0  0  0  0  0  0
    0.3030   13.3640   -1.4950 C   0  0  0  0  0  0  0  0  0  0  0  0
    0.8980   12.5820   -4.8710 C   0  0  0  0  0  0  0  0  0  0  0  0
   -0.4790   14.6280   -1.8310 C   0  0  0  0  0  0  0  0  0  0  0  0
    0.7460   11.6010   -5.8880 O   0  0  0  0  0  0  0  0  0  0  0  0
   -1.8530   14.3330   -2.4530 C   0  0  0  0  0  0  0  0  0  0  0  0
   -2.9440   14.9770   -1.6900 N   0  0  0  0  0  0  0  0  0  0  0  0
   -0.4210   10.8890   -5.9430 C   0  0  0  0  0  0  0  0  0  0  0  0
   -4.1390   15.3500   -2.3080 C   0  0  0  0  0  0  0  0  0  0  0  0
   -2.9590   14.9820   -0.2980 C   0  0  0  0  0  0  0  0  0  0  0  0
   -0.3760    9.7460   -6.7490 C   0  0  0  0  0  0  0  0  0  0  0  0
   -1.6070   11.2040   -5.2810 C   0  0  0  0  0  0  0  0  0  0  0  0
   -5.3260   15.1310   -1.7240 C   0  0  0  0  0  0  0  0  0  0  0  0
   -4.0750   14.7430    0.3940 C   0  0  0  0  0  0  0  0  0  0  0  0
   -1.4960    8.9280   -6.8910 C   0  0  0  0  0  0  0  0  0  0  0  0
   -2.7300   10.3850   -5.4230 C   0  0  0  0  0  0  0  0  0  0  0  0
   -5.3520   14.4390   -0.3690 C   0  0  0  0  0  0  0  0  0  0  0  0
   -2.6770    9.2490   -6.2260 C   0  0  0  0  0  0  0  0  0  0  0  0
   -6.6230   14.5880    0.4250 C   0  0  0  0  0  0  0  0  0  0  0  0
   -6.6520   14.5310    1.8080 N   0  0  0  0  0  0  0  0  0  0  0  0
   -7.8420   14.7740   -0.0490 N   0  0  0  0  0  0  0  0  0  0  0  0
   -8.6620   14.8370    1.0440 C   0  0  0  0  0  0  0  0  0  0  0  0
   -7.9450   14.6900    2.2040 C   0  0  0  0  0  0  0  0  0  0  0  0
  1  2  1  0
  2  3  2  0
  1  4  1  0
  2  5  1  0
  4  6  1  0
  5  7  1  0
  6  8  1  0
  8  9  1  0
  7 10  1  0
  9 11  1  0
  9 12  1  0
 10 13  2  0
 10 14  1  0
 11 15  2  0
 12 16  2  0
 13 17  1  0
 14 18  2  0
 15 19  1  0
 16 19  1  0
 17 20  2  0
 18 20  1  0
 19 21  1  0
 21 22  1  0
 21 23  2  0
 23 24  1  0
 22 25  1  0
 24 25  2  0
M  END
