mac-x0255-mac-x0402
     RDKit          3D

 24 27  0  0  0  0  0  0  0  0999 V2000
    1.1010   12.9920   -1.6730 O   0  0  0  0  0  0  0  0  0  0  0  0
    0.7370   12.1980   -2.7000 C   0  0  0  0  0  0  0  0  0  0  0  0
    0.2190   11.1060   -2.5340 O   0  0  0  0  0  0  0  0  0  0  0  0
    1.0270   12.7570   -4.0660 C   0  0  0  0  0  0  0  0  0  0  0  0
    0.4130   14.1140   -4.2960 C   0  0  0  0  0  0  0  0  0  0  0  0
   -0.5620   14.8520   -3.6570 C   0  0  0  0  0  0  0  0  0  0  0  0
    1.0020   14.9460   -5.5830 S   0  0  0  0  0  0  0  0  0  0  0  0
   -1.2200   14.2750   -2.4400 C   0  0  0  0  0  0  0  0  0  0  0  0
   -0.7810   16.1370   -4.3160 C   0  0  0  0  0  0  0  0  0  0  0  0
    0.0220   16.3040   -5.3800 C   0  0  0  0  0  0  0  0  0  0  0  0
   -1.6330   17.1950   -4.0680 C   0  0  0  0  0  0  0  0  0  0  0  0
    0.0040   17.4620   -6.1690 C   0  0  0  0  0  0  0  0  0  0  0  0
   -2.6250   14.6090   -1.9530 C   0  0  0  0  0  0  0  0  0  0  0  0
   -1.6670   18.3560   -4.8600 C   0  0  0  0  0  0  0  0  0  0  0  0
   -0.8500   18.4790   -5.9010 C   0  0  0  0  0  0  0  0  0  0  0  0
   -3.7770   15.0180   -2.6640 C   0  0  0  0  0  0  0  0  0  0  0  0
   -2.7120   14.4360   -0.5840 C   0  0  0  0  0  0  0  0  0  0  0  0
   -3.8960   14.6320    0.0700 C   0  0  0  0  0  0  0  0  0  0  0  0
   -5.0030   15.2200   -1.9700 C   0  0  0  0  0  0  0  0  0  0  0  0
   -5.0590   15.0090   -0.5680 C   0  0  0  0  0  0  0  0  0  0  0  0
   -4.1550   14.4450    1.7280 S   0  0  0  0  0  0  0  0  0  0  0  0
   -5.7960   14.8500    1.5130 C   0  0  0  0  0  0  0  0  0  0  0  0
   -6.1510   15.1260    0.2750 N   0  0  0  0  0  0  0  0  0  0  0  0
   -6.6290   14.8700    2.5690 N   0  0  0  0  0  0  0  0  0  0  0  0
  1  2  1  0
  2  3  2  0
  2  4  1  0
  4  5  1  0
  5  6  2  0
  5  7  1  0
  6  8  1  0
  6  9  1  0
  7 10  1  0
  9 10  2  0
  9 11  1  0
 10 12  1  0
  8 13  1  0
 11 14  2  0
 12 15  2  0
 14 15  1  0
 13 16  2  0
 13 17  1  0
 17 18  2  0
 16 19  1  0
 18 20  1  0
 19 20  2  0
 18 21  1  0
 21 22  1  0
 20 23  1  0
 22 23  2  0
 22 24  1  0
M  END
