mac-x0180-diamond-x0962_2_B
     RDKit          3D

 22 23  0  0  0  0  0  0  0  0999 V2000
   -7.4160   13.4700    1.2020 C   0  0  0  0  0  0  0  0  0  0  0  0
   -7.1050   14.4650    0.1030 C   0  0  2  0  0  0  0  0  0  0  0  0
   -6.8040   13.7040   -1.0510 O   0  0  0  0  0  0  0  0  0  0  0  0
   -5.8150   15.1020    0.3560 N   0  0  0  0  0  0  0  0  0  0  0  0
   -8.3260   15.3180   -0.3410 C   0  0  0  0  0  0  0  0  0  0  0  0
   -9.6710   14.8310    0.2620 C   0  0  0  0  0  0  0  0  0  0  0  0
   -4.6730   15.0810   -0.4260 C   0  0  0  0  0  0  0  0  0  0  0  0
  -10.1750   15.5700    1.5240 C   0  0  2  0  0  0  0  0  0  0  0  0
   -3.4210   14.9320    0.2050 C   0  0  0  0  0  0  0  0  0  0  0  0
   -4.6910   15.1960   -1.8060 C   0  0  0  0  0  0  0  0  0  0  0  0
  -10.3610   16.9780    1.2480 N   0  0  0  0  0  0  0  0  0  0  0  0
   -2.2340   14.8980   -0.5410 C   0  0  0  0  0  0  0  0  0  0  0  0
   -3.5230   15.1640   -2.5630 C   0  0  0  0  0  0  0  0  0  0  0  0
   -9.3400   15.3480    2.7510 C   0  0  0  0  0  0  0  0  0  0  0  0
   -2.2920   15.0130   -1.9370 C   0  0  0  0  0  0  0  0  0  0  0  0
   -8.9700   16.3340    3.6450 N   0  0  0  0  0  0  0  0  0  0  0  0
   -8.7740   14.2050    3.2740 C   0  0  0  0  0  0  0  0  0  0  0  0
   -1.0510   14.9790   -2.7540 C   0  0  0  0  0  0  0  0  0  0  0  0
   -8.2180   15.7480    4.6290 C   0  0  0  0  0  0  0  0  0  0  0  0
   -8.0880   14.4610    4.4270 N   0  0  0  0  0  0  0  0  0  0  0  0
   -1.0660   14.9750   -3.9720 O   0  0  0  0  0  0  0  0  0  0  0  0
    0.0790   14.9610   -2.0280 O   0  0  0  0  0  0  0  0  0  0  0  0
  2  1  1  1
  2  3  1  0
  2  4  1  0
  2  5  1  0
  5  6  1  0
  4  7  1  0
  6  8  1  0
  7  9  2  0
  7 10  1  0
  8 11  1  6
  9 12  1  0
 10 13  2  0
  8 14  1  0
 12 15  2  0
 13 15  1  0
 14 16  1  0
 14 17  2  0
 15 18  1  0
 16 19  1  0
 17 20  1  0
 19 20  2  0
 18 21  2  0
 18 22  1  0
M  END
