mac-x0305-mac-x0587
     RDKit          3D

 18 19  0  0  0  0  0  0  0  0999 V2000
   -0.3720   12.8520   -1.2870 O   0  0  0  0  0  0  0  0  0  0  0  0
   -0.2940   14.2700   -1.5540 C   0  0  1  0  0  0  0  0  0  0  0  0
   -0.4650   14.7110   -3.0790 C   0  0  1  0  0  0  0  0  0  0  0  0
   -1.4600   15.0330   -0.8830 C   0  0  2  0  0  0  0  0  0  0  0  0
    0.2100   16.0530   -3.3870 C   0  0  0  0  0  0  0  0  0  0  0  0
   -0.0540   13.5010   -4.4460 S   0  0  0  0  0  0  0  0  0  0  0  0
   -1.9840   14.9900   -3.1730 C   0  0  0  0  0  0  0  0  0  0  0  0
   -1.9620   14.5630    0.5050 C   0  0  1  0  0  0  0  0  0  0  0  0
   -2.5060   14.9480   -1.8930 N   0  0  0  0  0  0  0  0  0  0  0  0
   -1.0300   14.8570    1.5460 O   0  0  0  0  0  0  0  0  0  0  0  0
   -0.5230   11.8870   -3.7490 C   0  0  0  0  0  0  0  0  0  0  0  0
   -2.6330   15.2170   -4.1920 O   0  0  0  0  0  0  0  0  0  0  0  0
   -3.2300   15.3010    0.8100 C   0  0  0  0  0  0  0  0  0  0  0  0
   -3.8910   15.2800   -1.6120 C   0  0  0  0  0  0  0  0  0  0  0  0
    0.5280   11.3890   -2.7960 C   0  0  0  0  0  0  0  0  0  0  0  0
   -4.0940   15.6230   -0.1660 C   0  0  0  0  0  0  0  0  0  0  0  0
    0.6170   10.2150   -2.4750 O   0  0  0  0  0  0  0  0  0  0  0  0
    1.3540   12.3480   -2.3130 O   0  0  0  0  0  0  0  0  0  0  0  0
  2  1  1  6
  2  3  1  0
  2  4  1  0
  3  5  1  6
  3  6  1  0
  3  7  1  0
  4  8  1  0
  4  9  1  6
  7  9  1  0
  8 10  1  1
  6 11  1  0
  7 12  2  0
  8 13  1  0
  9 14  1  0
 11 15  1  0
 13 16  2  0
 14 16  1  0
 15 17  2  0
 15 18  1  0
M  END
