mac-x0346-mac-x1493
     RDKit          3D

 18 19  0  0  0  0  0  0  0  0999 V2000
   -8.1130   14.5820    0.8850 O   0  0  0  0  0  0  0  0  0  0  0  0
   -7.8940   15.3490   -0.2690 N   0  0  0  0  0  0  0  0  0  0  0  0
   -6.7140   15.3840   -0.9720 C   0  0  0  0  0  0  0  0  0  0  0  0
   -6.7650   15.8970   -2.0790 O   0  0  0  0  0  0  0  0  0  0  0  0
   -5.4150   14.7300   -0.4180 C   0  0  1  0  0  0  0  0  0  0  0  0
   -4.2920   14.8100   -1.4600 C   0  0  0  0  0  0  0  0  0  0  0  0
   -4.9230   15.3150    0.9730 C   0  0  2  0  0  0  0  0  0  0  0  0
   -5.8850   13.3150   -0.2270 C   0  0  0  0  0  0  0  0  0  0  0  0
   -4.6570   14.8810   -2.8090 O   0  0  0  0  0  0  0  0  0  0  0  0
   -2.9930   14.8060   -1.1100 C   0  0  0  0  0  0  0  0  0  0  0  0
   -3.4960   14.9660    1.2950 C   0  0  0  0  0  0  0  0  0  0  0  0
   -6.4480   12.9160    0.9140 C   0  0  0  0  0  0  0  0  0  0  0  0
   -5.8760   14.9230    2.0880 C   0  0  0  0  0  0  0  0  0  0  0  0
   -1.8990   14.8530   -2.1350 C   0  0  0  0  0  0  0  0  0  0  0  0
   -2.6190   14.7400    0.3060 C   0  0  0  0  0  0  0  0  0  0  0  0
   -6.5940   13.8050    2.0280 C   0  0  0  0  0  0  0  0  0  0  0  0
   -0.6530   14.7810   -1.6330 O   0  0  0  0  0  0  0  0  0  0  0  0
   -2.1100   14.9490   -3.3380 O   0  0  0  0  0  0  0  0  0  0  0  0
  1  2  1  0
  2  3  1  0
  3  4  2  0
  5  3  1  6
  5  6  1  0
  5  7  1  0
  5  8  1  0
  6  9  1  0
  6 10  2  0
  7 11  1  1
  8 12  2  0
  7 13  1  0
 10 14  1  0
 10 15  1  0
 11 15  2  0
 12 16  1  0
 13 16  2  0
 14 17  1  0
 14 18  2  0
M  END
