mac-x0564-diamond-x0662_0_A
     RDKit          3D

 33 37  0  0  0  0  0  0  0  0999 V2000
    0.7020   14.2550   -0.7820 O   0  0  0  0  0  0  0  0  0  0  0  0
   -0.0210   14.2760   -1.7620 C   0  0  0  0  0  0  0  0  0  0  0  0
    0.4500   14.0200   -3.0240 N   0  0  0  0  0  0  0  0  0  0  0  0
   -1.4260   14.5490   -1.7280 C   0  0  0  0  0  0  0  0  0  0  0  0
   -2.2340   14.5960   -2.8300 C   0  0  0  0  0  0  0  0  0  0  0  0
   -0.3520   14.0770   -4.0380 C   0  0  0  0  0  0  0  0  0  0  0  0
   -2.1370   14.7910   -0.5960 O   0  0  0  0  0  0  0  0  0  0  0  0
    0.2930   13.7840   -5.3690 C   0  0  0  0  0  0  0  0  0  0  0  0
   -1.7030   14.3820   -4.0360 N   0  0  0  0  0  0  0  0  0  0  0  0
   -3.4270   14.9920   -1.0070 C   0  0  0  0  0  0  0  0  0  0  0  0
   -3.5300   14.8780   -2.3940 C   0  0  0  0  0  0  0  0  0  0  0  0
   -0.3740   12.6650   -6.0610 N   0  0  0  0  0  0  0  0  0  0  0  0
   -4.7790   15.0500   -2.9930 C   0  0  0  0  0  0  0  0  0  0  0  0
   -4.5030   15.2730   -0.1730 C   0  0  0  0  0  0  0  0  0  0  0  0
    0.5360   11.8550   -6.4560 C   0  0  0  0  0  0  0  0  0  0  0  0
   -5.8780   15.3330   -2.1800 C   0  0  0  0  0  0  0  0  0  0  0  0
   -5.7420   15.4410   -0.7990 C   0  0  0  0  0  0  0  0  0  0  0  0
    1.7570   11.8960   -6.2570 O   0  0  0  0  0  0  0  0  0  0  0  0
    0.1700   10.6930   -7.3610 C   0  0  0  0  0  0  0  0  0  0  0  0
   -0.6880    9.6120   -7.1140 C   0  0  0  0  0  0  0  0  0  0  0  0
    0.7920   10.7610   -8.6130 C   0  0  0  0  0  0  0  0  0  0  0  0
   -0.8940    8.6500   -8.1140 C   0  0  0  0  0  0  0  0  0  0  0  0
    0.6070    9.8380   -9.6090 C   0  0  0  0  0  0  0  0  0  0  0  0
    1.2410    9.9410  -10.8680 N   0  0  0  0  0  0  0  0  0  0  0  0
   -0.2500    8.7630   -9.3580 C   0  0  0  0  0  0  0  0  0  0  0  0
    2.2750    9.1870  -11.3700 C   0  0  0  0  0  0  0  0  0  0  0  0
    2.6550    8.1060  -10.9470 O   0  0  0  0  0  0  0  0  0  0  0  0
    2.9520    9.8080  -12.5360 C   0  0  0  0  0  0  0  0  0  0  0  0
    2.7270   11.0920  -13.1170 C   0  0  0  0  0  0  0  0  0  0  0  0
    3.9300    9.1530  -13.1970 N   0  0  0  0  0  0  0  0  0  0  0  0
    4.3090   10.0060  -14.1650 N   0  0  0  0  0  0  0  0  0  0  0  0
    3.6180   11.1830  -14.1620 C   0  0  0  0  0  0  0  0  0  0  0  0
    5.3620    9.6130  -15.0690 C   0  0  0  0  0  0  0  0  0  0  0  0
  1  2  2  0
  2  3  1  0
  2  4  1  0
  4  5  2  0
  3  6  2  0
  4  7  1  0
  6  8  1  0
  5  9  1  0
  6  9  1  0
  7 10  1  0
  5 11  1  0
 10 11  2  0
  8 12  1  0
 11 13  1  0
 10 14  1  0
 12 15  2  3
 13 16  2  0
 14 17  2  0
 16 17  1  0
 15 18  1  0
 15 19  1  0
 19 20  2  0
 19 21  1  0
 20 22  1  0
 21 23  2  0
 23 24  1  0
 22 25  2  0
 23 25  1  0
 24 26  1  0
 26 27  2  0
 26 28  1  0
 28 29  1  0
 28 30  2  0
 30 31  1  0
 29 32  2  0
 31 32  1  0
 31 33  1  0
M  CHG  1  18  -1
M  END
