mac-x0565-diamond-x0742_0_A
     RDKit          3D

 28 32  0  0  0  0  0  0  0  0999 V2000
   -7.6150   15.6200   -1.8470 O   0  0  0  0  0  0  0  0  0  0  0  0
   -6.6500   14.5960   -1.6950 C   0  0  0  0  0  0  0  0  0  0  0  0
   -7.3740   13.3790   -1.7330 O   0  0  0  0  0  0  0  0  0  0  0  0
   -5.4860   14.6430   -2.6890 C   0  0  0  0  0  0  0  0  0  0  0  0
   -6.0750   14.8230   -0.3360 C   0  0  1  0  0  0  0  0  0  0  0  0
   -4.1620   14.7710   -2.1840 C   0  0  0  0  0  0  0  0  0  0  0  0
   -5.6370   14.5760   -4.0890 C   0  0  0  0  0  0  0  0  0  0  0  0
   -5.0060   13.8340    0.2250 C   0  0  2  0  0  0  0  0  0  0  0  0
   -5.2970   16.1130   -0.4690 C   0  0  0  0  0  0  0  0  0  0  0  0
   -5.2570   12.4190   -0.3750 C   0  0  0  0  0  0  0  0  0  0  0  0
   -3.0860   14.8370   -3.0380 C   0  0  0  0  0  0  0  0  0  0  0  0
   -4.5180   14.6440   -4.9420 C   0  0  0  0  0  0  0  0  0  0  0  0
   -4.6840   13.8460    1.7140 C   0  0  0  0  0  0  0  0  0  0  0  0
   -4.2370   15.5970   -1.4180 C   0  0  0  0  0  0  0  0  0  0  0  0
   -3.7880   14.5940   -0.3900 C   0  0  2  0  0  0  0  0  0  0  0  0
   -4.5250   11.9210   -1.2420 O   0  0  0  0  0  0  0  0  0  0  0  0
   -6.4420   11.6310    0.1290 C   0  0  0  0  0  0  0  0  0  0  0  0
   -3.2580   14.7770   -4.3870 C   0  0  0  0  0  0  0  0  0  0  0  0
   -1.7800   14.9680   -2.6770 O   0  0  0  0  0  0  0  0  0  0  0  0
   -2.4070   14.2720   -0.0370 C   0  0  0  0  0  0  0  0  0  0  0  0
   -3.5600   14.8550    1.9710 C   0  0  0  0  0  0  0  0  0  0  0  0
   -2.0760   14.8640   -5.0590 O   0  0  0  0  0  0  0  0  0  0  0  0
   -1.1440   15.0230   -3.9660 C   0  0  0  0  0  0  0  0  0  0  0  0
   -1.3020   13.8750   -0.7800 C   0  0  0  0  0  0  0  0  0  0  0  0
   -2.3140   14.4300    1.2860 C   0  0  0  0  0  0  0  0  0  0  0  0
   -1.2320   14.2390    1.9870 N   0  0  0  0  0  0  0  0  0  0  0  0
   -0.1290   13.6590   -0.0690 C   0  0  0  0  0  0  0  0  0  0  0  0
   -0.1750   13.8550    1.3100 C   0  0  0  0  0  0  0  0  0  0  0  0
  2  1  1  0
  2  3  1  0
  2  4  1  0
  5  2  1  6
  4  6  2  0
  4  7  1  0
  5  8  1  0
  5  9  1  0
  8 10  1  6
  6 11  1  0
  7 12  2  0
  8 13  1  0
  9 14  1  0
  8 15  1  0
 15 14  1  6
 10 16  2  0
 10 17  1  0
 11 18  2  0
 12 18  1  0
 11 19  1  0
 15 20  1  0
 13 21  1  0
 18 22  1  0
 19 23  1  0
 22 23  1  0
 20 24  1  0
 20 25  2  0
 21 25  1  0
 25 26  1  0
 24 27  2  0
 26 28  2  0
 27 28  1  0
M  END
