mac-x0282-diamond-x0910_1_A
     RDKit          3D

 16 18  0  0  0  0  0  0  0  0999 V2000
   -8.0130   14.1090    0.6430 N   0  0  0  0  0  0  0  0  0  0  0  0
   -6.7870   14.6400    0.5400 C   0  0  0  0  0  0  0  0  0  0  0  0
   -6.3730   15.3600   -0.5430 N   0  0  0  0  0  0  0  0  0  0  0  0
   -5.8140   14.5750    1.4050 N   0  0  0  0  0  0  0  0  0  0  0  0
   -5.1010   15.7830   -0.3920 N   0  0  0  0  0  0  0  0  0  0  0  0
   -4.7850   15.2760    0.8240 C   0  0  0  0  0  0  0  0  0  0  0  0
   -3.4240   15.4500    1.4790 C   0  0  0  0  0  0  0  0  0  0  0  0
   -2.3820   14.6250    0.8570 N   0  0  0  0  0  0  0  0  0  0  0  0
   -2.7990   14.4580   -0.4070 C   0  0  0  0  0  0  0  0  0  0  0  0
   -0.9960   14.7800    1.0420 C   0  0  0  0  0  0  0  0  0  0  0  0
   -1.8880   14.5930   -1.5670 C   0  0  0  0  0  0  0  0  0  0  0  0
   -4.0120   14.2050   -0.7990 N   0  0  0  0  0  0  0  0  0  0  0  0
   -0.1190   14.8730    0.0220 C   0  0  0  0  0  0  0  0  0  0  0  0
   -3.9510   14.2150   -2.1720 C   0  0  0  0  0  0  0  0  0  0  0  0
   -2.7360   14.4500   -2.6900 C   0  0  0  0  0  0  0  0  0  0  0  0
   -0.5900   14.7960   -1.3480 C   0  0  0  0  0  0  0  0  0  0  0  0
  1  2  1  0
  2  3  1  0
  2  4  2  0
  3  5  1  0
  4  6  1  0
  5  6  2  0
  6  7  1  0
  7  8  1  0
  8  9  1  0
  8 10  1  0
  9 11  1  0
  9 12  2  0
 10 13  2  0
 12 14  1  0
 11 15  1  0
 14 15  2  0
 11 16  2  0
 13 16  1  0
M  END
