mac-x0404-diamond-x0844_0_A
     RDKit          3D

 24 26  0  0  0  0  0  0  0  0999 V2000
    1.4030   12.8370   -2.1170 O   0  0  0  0  0  0  0  0  0  0  0  0
    1.0080   12.1260   -3.1900 C   0  0  0  0  0  0  0  0  0  0  0  0
    0.4550   11.0480   -3.0350 O   0  0  0  0  0  0  0  0  0  0  0  0
    1.3310   12.7900   -4.5230 C   0  0  0  0  0  0  0  0  0  0  0  0
    1.2040   14.2030   -4.5620 O   0  0  0  0  0  0  0  0  0  0  0  0
   -0.0470   14.7760   -4.6050 C   0  0  0  0  0  0  0  0  0  0  0  0
   -0.1230   16.1000   -5.0700 C   0  0  0  0  0  0  0  0  0  0  0  0
   -1.2070   14.1450   -4.2170 C   0  0  0  0  0  0  0  0  0  0  0  0
   -1.3650   16.7510   -5.1460 C   0  0  0  0  0  0  0  0  0  0  0  0
   -2.4570   14.8000   -4.2720 C   0  0  0  0  0  0  0  0  0  0  0  0
    0.9990   16.8050   -5.4630 C   0  0  0  0  0  0  0  0  0  0  0  0
   -3.7570   14.1980   -3.8170 C   0  0  0  0  0  0  0  0  0  0  0  0
   -2.5080   16.0880   -4.7500 C   0  0  0  0  0  0  0  0  0  0  0  0
   -1.4510   18.0620   -5.6120 C   0  0  0  0  0  0  0  0  0  0  0  0
    0.9210   18.1130   -5.9190 C   0  0  0  0  0  0  0  0  0  0  0  0
   -3.6810   14.0930   -2.3770 O   0  0  0  0  0  0  0  0  0  0  0  0
   -0.3100   18.7420   -5.9980 C   0  0  0  0  0  0  0  0  0  0  0  0
   -4.2020   15.1620   -1.5690 C   0  0  2  0  0  0  0  0  0  0  0  0
   -3.5330   15.0540   -0.2270 C   0  0  0  0  0  0  0  0  0  0  0  0
   -5.7290   15.1290   -1.5250 C   0  0  0  0  0  0  0  0  0  0  0  0
   -4.2030   14.8900    0.9160 C   0  0  0  0  0  0  0  0  0  0  0  0
   -6.3670   14.8870   -0.1720 C   0  0  0  0  0  0  0  0  0  0  0  0
   -7.5880   14.7720   -0.0540 O   0  0  0  0  0  0  0  0  0  0  0  0
   -5.5590   14.8040    0.9310 N   0  0  0  0  0  0  0  0  0  0  0  0
  1  2  1  0
  2  3  2  0
  2  4  1  0
  4  5  1  0
  5  6  1  0
  6  7  2  0
  6  8  1  0
  7  9  1  0
  8 10  2  0
  7 11  1  0
 10 12  1  0
  9 13  2  0
 10 13  1  0
  9 14  1  0
 11 15  2  0
 12 16  1  0
 14 17  2  0
 15 17  1  0
 18 16  1  6
 18 19  1  0
 18 20  1  0
 19 21  2  0
 20 22  1  0
 22 23  2  0
 21 24  1  0
 22 24  1  0
M  END
