mac-x0206-diamond-x0852_0_B
     RDKit          3D

 19 20  0  0  0  0  0  0  0  0999 V2000
   -3.3240   14.8110   -0.1750 N   0  0  0  0  0  0  0  0  0  0  0  0
   -4.5200   14.8140   -0.8480 C   0  0  0  0  0  0  0  0  0  0  0  0
   -4.5410   14.5190   -2.0360 O   0  0  0  0  0  0  0  0  0  0  0  0
   -5.7530   15.2410   -0.0230 C   0  0  1  0  0  0  0  0  0  0  0  0
   -7.1480   14.6680   -0.4050 C   0  0  1  0  0  0  0  0  0  0  0  0
   -5.5420   15.2260    1.4770 C   0  0  0  0  0  0  0  0  0  0  0  0
   -7.0400   13.7930   -1.5280 O   0  0  0  0  0  0  0  0  0  0  0  0
   -7.9930   14.0150    0.7470 C   0  0  0  0  0  0  0  0  0  0  0  0
   -6.5450   15.0710    2.3890 C   0  0  0  0  0  0  0  0  0  0  0  0
   -8.0350   14.8260    2.1050 C   0  0  2  0  0  0  0  0  0  0  0  0
   -8.3640   14.0670    3.4440 C   0  0  0  0  0  0  0  0  0  0  0  0
   -9.1570   15.9730    2.1380 C   0  0  1  0  0  0  0  0  0  0  0  0
  -10.7800   15.6130    1.1110 Br  0  0  0  0  0  0  0  0  0  0  0  0
   -8.0460   14.9510    4.7000 C   0  0  2  0  0  0  0  0  0  0  0  0
   -9.6530   16.5040    3.5130 C   0  0  0  0  0  0  0  0  0  0  0  0
   -8.3420   14.2620    5.9050 O   0  0  0  0  0  0  0  0  0  0  0  0
   -8.6660   16.3560    4.6760 C   0  0  1  0  0  0  0  0  0  0  0  0
   -9.2660   16.7980    5.9620 C   0  0  0  0  0  0  0  0  0  0  0  0
   -9.6910   17.2130    6.9660 N   0  0  0  0  0  0  0  0  0  0  0  0
  1  2  1  0
  2  3  2  0
  4  2  1  6
  4  5  1  0
  4  6  1  0
  5  7  1  6
  5  8  1  0
  6  9  2  0
 10  8  1  6
 10  9  1  0
 10 11  1  0
 10 12  1  0
 12 13  1  1
 11 14  1  0
 12 15  1  0
 14 16  1  1
 14 17  1  0
 15 17  1  0
 17 18  1  1
 18 19  3  0
M  END
