mac-x0373-mac-x0365
     RDKit          3D

 19 20  0  0  0  0  0  0  0  0999 V2000
    0.2810   13.2460   -1.2470 O   0  0  0  0  0  0  0  0  0  0  0  0
    0.0730   14.3010   -2.0620 C   0  0  0  0  0  0  0  0  0  0  0  0
    0.9970   15.0820   -2.2390 O   0  0  0  0  0  0  0  0  0  0  0  0
   -1.3320   14.4070   -2.7220 C   0  0  1  0  0  0  0  0  0  0  0  0
   -1.3170   15.5170   -3.6420 O   0  0  0  0  0  0  0  0  0  0  0  0
   -1.6240   13.1460   -3.5460 C   0  0  0  0  0  0  0  0  0  0  0  0
   -2.5110   14.6800   -1.7840 C   0  0  0  0  0  0  0  0  0  0  0  0
   -0.9920   12.8980   -4.7810 C   0  0  0  0  0  0  0  0  0  0  0  0
   -2.5510   12.1950   -3.0750 C   0  0  0  0  0  0  0  0  0  0  0  0
   -3.7550   14.9730   -2.3810 C   0  0  0  0  0  0  0  0  0  0  0  0
   -2.4420   14.6430   -0.3720 C   0  0  0  0  0  0  0  0  0  0  0  0
   -1.2790   11.7420   -5.5100 C   0  0  0  0  0  0  0  0  0  0  0  0
   -2.8350   11.0420   -3.8050 C   0  0  0  0  0  0  0  0  0  0  0  0
   -4.8770   15.1970   -1.6080 C   0  0  0  0  0  0  0  0  0  0  0  0
   -3.5860   14.8760    0.4040 C   0  0  0  0  0  0  0  0  0  0  0  0
   -6.0560   15.4570   -2.1990 F   0  0  0  0  0  0  0  0  0  0  0  0
   -2.1990   10.8150   -5.0240 C   0  0  0  0  0  0  0  0  0  0  0  0
   -4.7960   15.1410   -0.2280 C   0  0  0  0  0  0  0  0  0  0  0  0
   -5.9150   15.3340    0.5190 O   0  0  0  0  0  0  0  0  0  0  0  0
  1  2  1  0
  2  3  2  0
  2  4  1  0
  4  5  1  6
  4  6  1  0
  4  7  1  0
  6  8  2  0
  6  9  1  0
  7 10  2  0
  7 11  1  0
  8 12  1  0
  9 13  2  0
 10 14  1  0
 11 15  2  0
 14 16  1  0
 12 17  2  0
 13 17  1  0
 14 18  2  0
 15 18  1  0
 18 19  1  0
M  END
