mac-x0161-mac-x0302
     RDKit          3D

 31 34  0  0  0  0  0  0  0  0999 V2000
   -4.1180   15.6310    1.8150 N   0  0  0  0  0  0  0  0  0  0  0  0
   -3.5570   14.8320    0.7430 C   0  0  2  0  0  0  0  0  0  0  0  0
   -2.0710   14.4910    0.9370 C   0  0  1  0  0  0  0  0  0  0  0  0
   -3.8260   15.6270   -0.4240 N   0  0  0  0  0  0  0  0  0  0  0  0
   -2.6340   15.7830   -1.2530 C   0  0  0  0  0  0  0  0  0  0  0  0
   -1.4380   13.9280   -0.3530 C   0  0  1  0  0  0  0  0  0  0  0  0
   -1.1980   15.6340    1.1590 N   0  0  0  0  0  0  0  0  0  0  0  0
   -2.0700   14.4780   -1.5170 N   0  0  0  0  0  0  0  0  0  0  0  0
   -0.0300   14.3270   -0.2620 N   0  0  0  0  0  0  0  0  0  0  0  0
    0.0720   14.9940    1.0090 C   0  0  0  0  0  0  0  0  0  0  0  0
   -1.4790   14.3020   -2.8370 C   0  0  2  0  0  0  0  0  0  0  0  0
   -0.1070   15.0590   -3.0270 C   0  0  0  0  0  0  0  0  0  0  0  0
   -2.4270   14.8750   -3.8070 N   0  0  0  0  0  0  0  0  0  0  0  0
   -1.1480   12.9020   -3.3080 C   0  0  0  0  0  0  0  0  0  0  0  0
    0.1320   15.5630   -4.2600 O   0  0  0  0  0  0  0  0  0  0  0  0
    0.7350   15.1870   -2.1420 O   0  0  0  0  0  0  0  0  0  0  0  0
   -3.8180   14.7390   -3.8010 C   0  0  0  0  0  0  0  0  0  0  0  0
   -1.2330   12.2770   -4.5340 C   0  0  0  0  0  0  0  0  0  0  0  0
   -0.6460   12.0010   -2.3940 O   0  0  0  0  0  0  0  0  0  0  0  0
   -4.4810   14.8840   -4.8180 O   0  0  0  0  0  0  0  0  0  0  0  0
   -0.4100   10.7920   -3.0300 N   0  0  0  0  0  0  0  0  0  0  0  0
   -0.7630   10.9820   -4.2970 C   0  0  0  0  0  0  0  0  0  0  0  0
   -4.5610   14.4100   -2.5260 C   0  0  0  0  0  0  0  0  0  0  0  0
   -0.6630   10.0050   -5.2210 O   0  0  0  0  0  0  0  0  0  0  0  0
   -5.7390   15.0930   -2.1460 C   0  0  0  0  0  0  0  0  0  0  0  0
   -4.0850   13.3870   -1.6810 C   0  0  0  0  0  0  0  0  0  0  0  0
   -1.6070   10.1070   -6.2810 C   0  0  0  0  0  0  0  0  0  0  0  0
   -6.3970   14.7580   -0.9660 C   0  0  0  0  0  0  0  0  0  0  0  0
   -4.7590   13.0640   -0.4950 C   0  0  0  0  0  0  0  0  0  0  0  0
   -7.5360   15.4030   -0.5850 O   0  0  0  0  0  0  0  0  0  0  0  0
   -5.9160   13.7530   -0.1380 C   0  0  0  0  0  0  0  0  0  0  0  0
  2  1  1  1
  2  3  1  0
  2  4  1  0
  4  5  1  0
  3  6  1  0
  3  7  1  6
  5  8  1  0
  6  8  1  0
  6  9  1  6
  7 10  1  0
  9 10  1  0
  8 11  1  0
 11 12  1  0
 11 13  1  6
 11 14  1  0
 12 15  1  0
 12 16  2  0
 13 17  1  0
 14 18  2  0
 14 19  1  0
 17 20  2  0
 19 21  1  0
 18 22  1  0
 21 22  2  0
 17 23  1  0
 22 24  1  0
 23 25  2  0
 23 26  1  0
 24 27  1  0
 25 28  1  0
 26 29  2  0
 28 30  1  0
 28 31  2  0
 29 31  1  0
M  END
