mac-x0139-mac-x0555
     RDKit          3D

 22 24  0  0  0  0  0  0  0  0999 V2000
   -2.2090   15.2350   -3.1480 C   0  0  0  0  0  0  0  0  0  0  0  0
   -1.0040   15.5910   -2.3820 N   0  0  0  0  0  0  0  0  0  0  0  0
    0.2570   15.0380   -2.9690 C   0  0  0  0  0  0  0  0  0  0  0  0
   -1.1540   15.2760   -1.0030 C   0  0  0  0  0  0  0  0  0  0  0  0
    0.0660   13.6670   -3.6430 C   0  0  0  0  0  0  0  0  0  0  0  0
   -2.3780   15.0240   -0.4220 C   0  0  0  0  0  0  0  0  0  0  0  0
   -0.0580   15.2210   -0.2400 N   0  0  0  0  0  0  0  0  0  0  0  0
    0.8300   12.5790   -2.9210 C   0  0  0  0  0  0  0  0  0  0  0  0
   -2.3930   14.7050    0.9240 C   0  0  0  0  0  0  0  0  0  0  0  0
   -0.2120   14.9170    1.0590 C   0  0  0  0  0  0  0  0  0  0  0  0
   -3.7720   15.0200   -0.9590 C   0  0  0  0  0  0  0  0  0  0  0  0
    1.7640   12.7520   -2.1650 O   0  0  0  0  0  0  0  0  0  0  0  0
    0.3630   11.3360   -3.1920 O   0  0  0  0  0  0  0  0  0  0  0  0
   -1.3390   14.6470    1.7000 N   0  0  0  0  0  0  0  0  0  0  0  0
   -3.6800   14.4390    1.3860 N   0  0  0  0  0  0  0  0  0  0  0  0
   -4.5870   14.4170    0.2340 C   0  0  1  0  0  0  0  0  0  0  0  0
   -5.7160   15.2720    0.6820 C   0  0  0  0  0  0  0  0  0  0  0  0
   -5.2360   13.0970   -0.2180 C   0  0  0  0  0  0  0  0  0  0  0  0
   -7.0730   14.6000    1.0830 C   0  0  2  0  0  0  0  0  0  0  0  0
   -6.5250   13.2790   -0.9140 N   0  0  0  0  0  0  0  0  0  0  0  0
   -7.1170   14.0940    2.4640 N   0  0  0  0  0  0  0  0  0  0  0  0
   -7.5730   13.6110    0.0230 C   0  0  0  0  0  0  0  0  0  0  0  0
  1  2  1  0
  2  3  1  0
  2  4  1  0
  3  5  1  0
  4  6  2  0
  4  7  1  0
  5  8  1  0
  6  9  1  0
  7 10  2  0
  6 11  1  0
  8 12  2  0
  8 13  1  0
  9 14  2  0
 10 14  1  0
  9 15  1  0
 16 11  1  6
 16 15  1  0
 16 17  1  0
 16 18  1  0
 17 19  1  0
 18 20  1  0
 19 21  1  1
 19 22  1  0
 20 22  1  0
M  END
