mac-x0326-diamond-x0371_0_A
     RDKit          3D

 28 31  0  0  0  0  0  0  0  0999 V2000
   -6.5640   15.4920   -1.8410 Cl  0  0  0  0  0  0  0  0  0  0  0  0
   -4.7920   15.5450   -1.4990 C   0  0  2  0  0  0  0  0  0  0  0  0
   -4.0210   15.0900   -2.7540 C   0  0  0  0  0  0  0  0  0  0  0  0
   -4.4710   14.6970   -0.2430 C   0  0  1  0  0  0  0  0  0  0  0  0
   -2.5840   14.8940   -2.4700 C   0  0  0  0  0  0  0  0  0  0  0  0
   -2.9190   14.6950    0.0670 C   0  0  0  0  0  0  0  0  0  0  0  0
   -5.3520   15.0550    0.9300 N   0  0  0  0  0  0  0  0  0  0  0  0
   -5.0360   13.3120   -0.5360 C   0  0  0  0  0  0  0  0  0  0  0  0
   -1.6660   14.8820   -3.4940 N   0  0  0  0  0  0  0  0  0  0  0  0
   -2.0880   14.7170   -1.1990 C   0  0  0  0  0  0  0  0  0  0  0  0
   -6.4410   14.0590    1.0120 C   0  0  2  0  0  0  0  0  0  0  0  0
   -6.4760   13.5000   -0.3200 N   0  0  0  0  0  0  0  0  0  0  0  0
   -7.8710   14.4970    1.4880 C   0  0  0  0  0  0  0  0  0  0  0  0
   -0.4570   14.6990   -3.0100 C   0  0  0  0  0  0  0  0  0  0  0  0
   -0.3850   14.5350   -1.2820 S   0  0  0  0  0  0  0  0  0  0  0  0
    0.7690   14.6290   -3.8830 C   0  0  0  0  0  0  0  0  0  0  0  0
   -8.0030   14.5570    2.9370 N   0  0  0  0  0  0  0  0  0  0  0  0
    1.0270   13.2150   -4.3850 C   0  0  0  0  0  0  0  0  0  0  0  0
   -8.7780   15.5180    3.5630 C   0  0  0  0  0  0  0  0  0  0  0  0
    1.1180   12.2640   -3.2270 C   0  0  0  0  0  0  0  0  0  0  0  0
   -9.5040   16.2740    2.9130 O   0  0  0  0  0  0  0  0  0  0  0  0
   -8.6580   15.5440    5.0030 C   0  0  0  0  0  0  0  0  0  0  0  0
    0.2970   11.1980   -3.3480 O   0  0  0  0  0  0  0  0  0  0  0  0
    1.8270   12.3820   -2.2470 O   0  0  0  0  0  0  0  0  0  0  0  0
   -8.0590   14.4640    5.6050 O   0  0  0  0  0  0  0  0  0  0  0  0
   -9.0240   16.4520    5.9810 C   0  0  0  0  0  0  0  0  0  0  0  0
   -8.6260   15.8930    7.2250 C   0  0  0  0  0  0  0  0  0  0  0  0
   -8.0430   14.6850    6.9380 C   0  0  0  0  0  0  0  0  0  0  0  0
  2  1  1  6
  2  3  1  0
  2  4  1  0
  3  5  1  0
  4  6  1  1
  4  7  1  0
  4  8  1  0
  5  9  1  0
  5 10  2  0
  6 10  1  0
  7 11  1  0
  8 12  1  0
 11 12  1  0
 11 13  1  6
  9 14  2  0
 10 15  1  0
 14 15  1  0
 14 16  1  0
 13 17  1  0
 16 18  1  0
 17 19  1  0
 18 20  1  0
 19 21  2  0
 19 22  1  0
 20 23  1  0
 20 24  2  0
 22 25  1  0
 22 26  2  0
 26 27  1  0
 25 28  1  0
 27 28  2  0
M  END
