mac-x0328-mac-x0139
     RDKit          3D

 24 26  0  0  0  0  0  0  0  0999 V2000
   -1.8810   13.2570   -3.1620 O   0  0  0  0  0  0  0  0  0  0  0  0
   -2.5140   14.4950   -3.3580 C   0  0  1  0  0  0  0  0  0  0  0  0
   -3.8960   14.5970   -2.6610 C   0  0  0  0  0  0  0  0  0  0  0  0
   -1.3830   15.5480   -3.1750 C   0  0  0  0  0  0  0  0  0  0  0  0
   -4.2680   14.4340   -1.3030 C   0  0  0  0  0  0  0  0  0  0  0  0
   -4.9890   14.8940   -3.4760 C   0  0  0  0  0  0  0  0  0  0  0  0
    0.0640   15.0330   -2.9570 C   0  0  0  0  0  0  0  0  0  0  0  0
   -5.5760   14.5830   -0.8390 C   0  0  0  0  0  0  0  0  0  0  0  0
   -6.2980   15.0330   -2.9970 C   0  0  0  0  0  0  0  0  0  0  0  0
   -3.5320   14.1140   -0.1240 C   0  0  1  0  0  0  0  0  0  0  0  0
    0.5130   13.8990   -3.8900 C   0  0  0  0  0  0  0  0  0  0  0  0
   -6.5800   14.8850   -1.6690 C   0  0  0  0  0  0  0  0  0  0  0  0
   -2.0990   14.4240   -0.1230 C   0  0  1  0  0  0  0  0  0  0  0  0
   -4.1200   14.9500    1.0130 C   0  0  0  0  0  0  0  0  0  0  0  0
    0.9170   12.6420   -3.1480 C   0  0  0  0  0  0  0  0  0  0  0  0
   -7.8480   15.0400   -1.2190 O   0  0  0  0  0  0  0  0  0  0  0  0
   -1.7200   15.7460   -0.6810 C   0  0  0  0  0  0  0  0  0  0  0  0
   -1.9920   14.4360    1.3540 C   0  0  2  0  0  0  0  0  0  0  0  0
   -2.9350   15.4530    1.6780 N   0  0  0  0  0  0  0  0  0  0  0  0
    1.4650   12.5980   -2.0640 O   0  0  0  0  0  0  0  0  0  0  0  0
    0.6010   11.5210   -3.8360 O   0  0  0  0  0  0  0  0  0  0  0  0
   -0.6530   14.6740    1.7370 N   0  0  0  0  0  0  0  0  0  0  0  0
   -0.3680   16.0260   -0.2640 N   0  0  0  0  0  0  0  0  0  0  0  0
    0.2010   15.0530    0.6270 C   0  0  0  0  0  0  0  0  0  0  0  0
  2  1  1  1
  2  3  1  0
  2  4  1  0
  3  5  2  0
  3  6  1  0
  4  7  1  0
  5  8  1  0
  6  9  2  0
 10  5  1  6
  7 11  1  0
  8 12  2  0
  9 12  1  0
 10 13  1  0
 10 14  1  0
 11 15  1  0
 12 16  1  0
 13 17  1  1
 13 18  1  0
 14 19  1  0
 18 19  1  1
 15 20  2  0
 15 21  1  0
 18 22  1  0
 17 23  1  0
 22 24  1  0
 23 24  1  0
M  END
