mac-x0302-diamond-x0895_0_A
     RDKit          3D

 15 15  0  0  0  0  0  0  0  0999 V2000
    1.6410   14.2850   -3.8150 O   0  0  0  0  0  0  0  0  0  0  0  0
    0.6280   14.0590   -2.9570 C   0  0  0  0  0  0  0  0  0  0  0  0
    0.8230   13.4430   -1.9230 O   0  0  0  0  0  0  0  0  0  0  0  0
   -0.6920   14.6430   -3.4260 C   0  0  0  0  0  0  0  0  0  0  0  0
   -1.5400   14.8620   -2.2760 N   0  0  0  0  0  0  0  0  0  0  0  0
   -2.8970   14.9930   -2.4040 C   0  0  0  0  0  0  0  0  0  0  0  0
   -3.4290   15.5390   -3.3700 O   0  0  0  0  0  0  0  0  0  0  0  0
   -3.6640   14.4020   -1.2390 C   0  0  2  0  0  0  0  0  0  0  0  0
   -5.1750   14.5950   -1.4790 C   0  0  0  0  0  0  0  0  0  0  0  0
   -3.1440   14.7880    0.1520 C   0  0  0  0  0  0  0  0  0  0  0  0
   -1.9470   14.9330    0.4500 O   0  0  0  0  0  0  0  0  0  0  0  0
   -5.9410   15.3150   -0.3890 C   0  0  1  0  0  0  0  0  0  0  0  0
   -4.0960   14.9450    1.2380 C   0  0  0  0  0  0  0  0  0  0  0  0
   -7.2870   14.8490   -0.3600 O   0  0  0  0  0  0  0  0  0  0  0  0
   -5.3720   15.1690    0.9870 C   0  0  0  0  0  0  0  0  0  0  0  0
  1  2  1  0
  2  3  2  0
  2  4  1  0
  4  5  1  0
  5  6  1  0
  6  7  2  0
  8  6  1  6
  8  9  1  0
  8 10  1  0
 10 11  2  0
  9 12  1  0
 10 13  1  0
 12 14  1  1
 12 15  1  0
 13 15  2  0
M  END
