mac-x0373-diamond-x0631_0_A
     RDKit          3D

 34 37  0  0  0  0  0  0  0  0999 V2000
    0.2740   12.9050   -1.6030 O   0  0  0  0  0  0  0  0  0  0  0  0
    0.1560   14.2290   -1.9640 C   0  0  0  0  0  0  0  0  0  0  0  0
    1.0640   15.0070   -1.7350 O   0  0  0  0  0  0  0  0  0  0  0  0
   -1.1670   14.6020   -2.6760 C   0  0  1  0  0  0  0  0  0  0  0  0
   -1.6230   13.6550   -3.7640 C   0  0  0  0  0  0  0  0  0  0  0  0
   -2.3340   14.9080   -1.7170 C   0  0  0  0  0  0  0  0  0  0  0  0
   -0.7110   12.7510   -4.3400 C   0  0  0  0  0  0  0  0  0  0  0  0
   -2.9510   13.6320   -4.2150 C   0  0  0  0  0  0  0  0  0  0  0  0
   -3.5660   15.4060   -2.1820 C   0  0  0  0  0  0  0  0  0  0  0  0
   -2.1790   14.6970   -0.3310 C   0  0  0  0  0  0  0  0  0  0  0  0
   -1.1230   11.8500   -5.3230 C   0  0  0  0  0  0  0  0  0  0  0  0
   -3.3570   12.7250   -5.1980 C   0  0  0  0  0  0  0  0  0  0  0  0
   -4.6030   15.6840   -1.2930 C   0  0  0  0  0  0  0  0  0  0  0  0
   -3.2230   14.9800    0.5510 C   0  0  0  0  0  0  0  0  0  0  0  0
   -2.4490   11.8280   -5.7550 C   0  0  0  0  0  0  0  0  0  0  0  0
   -4.4290   15.4730    0.0680 C   0  0  0  0  0  0  0  0  0  0  0  0
   -2.9080   10.8590   -6.8120 C   0  0  0  0  0  0  0  0  0  0  0  0
   -3.0350    9.4300   -6.2940 C   0  0  0  0  0  0  0  0  0  0  0  0
   -2.6200    8.4110   -7.3570 C   0  0  0  0  0  0  0  0  0  0  0  0
   -1.4000    7.5930   -6.9270 C   0  0  0  0  0  0  0  0  0  0  0  0
   -0.0960    8.3960   -6.8790 C   0  0  0  0  0  0  0  0  0  0  0  0
    0.0470    9.4660   -7.8800 N   0  0  0  0  0  0  0  0  0  0  0  0
    0.4720   10.7340   -7.3950 N   0  0  0  0  0  0  0  0  0  0  0  0
    0.8130    9.1710   -9.0640 N   0  0  0  0  0  0  0  0  0  0  0  0
    1.1300   11.2950   -8.5230 N   0  0  0  0  0  0  0  0  0  0  0  0
    0.7190   10.4930   -9.6480 C   0  0  1  0  0  0  0  0  0  0  0  0
    1.6400   10.7340  -10.7260 N   0  0  0  0  0  0  0  0  0  0  0  0
    2.2880    9.6160  -11.3840 C   0  0  1  0  0  0  0  0  0  0  0  0
    1.4970    8.4440  -11.3630 O   0  0  0  0  0  0  0  0  0  0  0  0
    2.6180    9.9650  -12.8620 C   0  0  2  0  0  0  0  0  0  0  0  0
    3.9740    9.5800  -13.1640 O   0  0  0  0  0  0  0  0  0  0  0  0
    2.5360   11.4350  -13.2490 C   0  0  0  0  0  0  0  0  0  0  0  0
    3.5130   11.5600  -14.4030 C   0  0  0  0  0  0  0  0  0  0  0  0
    4.3290   10.2800  -14.3610 C   0  0  0  0  0  0  0  0  0  0  0  0
  1  2  1  0
  2  3  2  0
  4  2  1  1
  4  5  1  0
  4  6  1  0
  5  7  2  0
  5  8  1  0
  6  9  2  0
  6 10  1  0
  7 11  1  0
  8 12  2  0
  9 13  1  0
 10 14  2  0
 11 15  2  0
 12 15  1  0
 13 16  2  0
 14 16  1  0
 15 17  1  0
 17 18  1  0
 18 19  1  0
 19 20  1  0
 20 21  1  0
 21 22  1  0
 22 23  1  0
 22 24  1  0
 23 25  1  0
 24 26  1  0
 25 26  1  0
 26 27  1  6
 27 28  1  0
 28 29  1  6
 28 30  1  0
 30 31  1  0
 30 32  1  1
 32 33  1  0
 31 34  1  0
 33 34  1  0
M  END
