mac-x0365-diamond-x0128_0_A
     RDKit          3D

 21 22  0  0  0  0  0  0  0  0999 V2000
   -1.1500   14.7030   -0.7060 O   0  0  0  0  0  0  0  0  0  0  0  0
   -2.1480   14.7990   -1.6010 C   0  0  0  0  0  0  0  0  0  0  0  0
   -1.9370   14.7990   -2.8100 O   0  0  0  0  0  0  0  0  0  0  0  0
   -3.5440   14.9030   -1.0500 C   0  0  0  0  0  0  0  0  0  0  0  0
   -4.5020   15.0560   -2.0400 C   0  0  0  0  0  0  0  0  0  0  0  0
   -3.9540   14.8560    0.3370 C   0  0  0  0  0  0  0  0  0  0  0  0
   -5.8260   15.1490   -1.6860 C   0  0  0  0  0  0  0  0  0  0  0  0
   -5.3570   14.9550    0.7060 C   0  0  0  0  0  0  0  0  0  0  0  0
   -6.7410   15.2860   -2.6460 F   0  0  0  0  0  0  0  0  0  0  0  0
   -5.9390   14.9130    2.0810 N   0  0  0  0  0  0  0  0  0  0  0  0
   -6.2510   15.1000   -0.3620 C   0  0  0  0  0  0  0  0  0  0  0  0
   -7.5880   15.1950   -0.0960 O   0  0  0  0  0  0  0  0  0  0  0  0
   -7.2670   15.1070    2.6400 C   0  0  0  0  0  0  0  0  0  0  0  0
   -8.3060   15.1120    1.9850 O   0  0  0  0  0  0  0  0  0  0  0  0
   -7.2510   15.3110    4.0600 N   0  0  0  0  0  0  0  0  0  0  0  0
   -8.1850   16.0150    4.9220 C   0  0  0  0  0  0  0  0  0  0  0  0
   -9.0250   17.0780    4.5670 C   0  0  0  0  0  0  0  0  0  0  0  0
   -8.2760   15.6120    6.2700 C   0  0  0  0  0  0  0  0  0  0  0  0
   -9.8830   17.7200    5.4090 N   0  0  0  0  0  0  0  0  0  0  0  0
   -9.1520   16.2580    7.1570 C   0  0  0  0  0  0  0  0  0  0  0  0
   -9.9280   17.3000    6.6840 C   0  0  0  0  0  0  0  0  0  0  0  0
  1  2  1  0
  2  3  2  0
  2  4  1  0
  4  5  2  0
  4  6  1  0
  5  7  1  0
  6  8  2  0
  7  9  1  0
  8 10  1  0
  7 11  2  0
  8 11  1  0
 11 12  1  0
 10 13  1  0
 13 14  2  0
 13 15  1  0
 15 16  1  0
 16 17  2  0
 16 18  1  0
 17 19  1  0
 18 20  2  0
 19 21  2  0
 20 21  1  0
M  END
