mac-x0436-diamond-x0950_0_A
     RDKit          3D

 17 18  0  0  0  0  0  0  0  0999 V2000
    0.4860   11.1220   -2.6840 O   0  0  0  0  0  0  0  0  0  0  0  0
    1.0790   12.3260   -2.7990 C   0  0  0  0  0  0  0  0  0  0  0  0
    1.2850   13.0380   -1.8340 O   0  0  0  0  0  0  0  0  0  0  0  0
    1.4530   12.6700   -4.2320 C   0  0  1  0  0  0  0  0  0  0  0  0
    0.2630   13.1860   -5.0380 C   0  0  0  0  0  0  0  0  0  0  0  0
    2.6670   13.5710   -4.2380 C   0  0  0  0  0  0  0  0  0  0  0  0
   -0.4940   11.9660   -5.5280 C   0  0  0  0  0  0  0  0  0  0  0  0
   -1.8230   11.6490   -4.8410 C   0  0  0  0  0  0  0  0  0  0  0  0
    0.0170   11.2230   -6.4720 N   0  0  0  0  0  0  0  0  0  0  0  0
   -2.2760   12.3850   -3.9800 O   0  0  0  0  0  0  0  0  0  0  0  0
   -2.4420   10.4990   -5.2590 N   0  0  0  0  0  0  0  0  0  0  0  0
   -0.6890   10.0730   -6.8700 C   0  0  0  0  0  0  0  0  0  0  0  0
   -1.9080    9.7000   -6.2760 C   0  0  0  0  0  0  0  0  0  0  0  0
   -0.1580    9.2750   -7.8820 C   0  0  0  0  0  0  0  0  0  0  0  0
   -0.8300    8.1230   -8.2960 C   0  0  0  0  0  0  0  0  0  0  0  0
   -2.5810    8.5530   -6.6850 C   0  0  0  0  0  0  0  0  0  0  0  0
   -2.0400    7.7620   -7.6990 C   0  0  0  0  0  0  0  0  0  0  0  0
  1  2  1  0
  2  3  2  0
  2  4  1  0
  4  5  1  0
  4  6  1  1
  5  7  1  0
  7  8  1  0
  7  9  2  0
  8 10  2  0
  8 11  1  0
  9 12  1  0
 11 13  1  0
 12 13  2  0
 12 14  1  0
 14 15  2  0
 13 16  1  0
 15 17  1  0
 16 17  2  0
M  END
