mac-x0380-mac-x0319
     RDKit          3D

 26 28  0  0  0  0  0  0  0  0999 V2000
   -1.5170   15.5920   -2.3710 O   0  0  0  0  0  0  0  0  0  0  0  0
   -2.8510   15.6010   -2.8460 C   0  0  0  0  0  0  0  0  0  0  0  0
   -2.9400   16.8640   -3.4290 O   0  0  0  0  0  0  0  0  0  0  0  0
   -2.8260   14.6220   -4.0040 C   0  0  0  0  0  0  0  0  0  0  0  0
   -3.6960   15.4030   -1.6070 C   0  0  0  0  0  0  0  0  0  0  0  0
   -5.0870   15.2810   -1.6770 C   0  0  0  0  0  0  0  0  0  0  0  0
   -3.0750   15.3500   -0.3420 C   0  0  0  0  0  0  0  0  0  0  0  0
   -1.3610   14.6790   -4.2390 C   0  0  0  0  0  0  0  0  0  0  0  0
   -5.8480   15.1120   -0.5150 C   0  0  0  0  0  0  0  0  0  0  0  0
   -3.8250   15.1810    0.8200 C   0  0  0  0  0  0  0  0  0  0  0  0
   -0.7320   15.8500   -4.6770 C   0  0  0  0  0  0  0  0  0  0  0  0
   -0.6280   13.5580   -3.9760 C   0  0  0  0  0  0  0  0  0  0  0  0
   -5.2140   15.0620    0.7370 C   0  0  0  0  0  0  0  0  0  0  0  0
   -7.6050   14.9680   -0.6870 S   0  0  0  0  0  0  0  0  0  0  0  0
    0.7400   13.5610   -4.1200 C   0  0  0  0  0  0  0  0  0  0  0  0
    0.6450   15.8680   -4.8280 C   0  0  0  0  0  0  0  0  0  0  0  0
    1.4120   12.2850   -3.7810 C   0  0  0  0  0  0  0  0  0  0  0  0
    1.2740   16.9990   -5.2450 O   0  0  0  0  0  0  0  0  0  0  0  0
   -5.9330   14.8960    1.9350 N   0  0  0  0  0  0  0  0  0  0  0  0
   -7.9190   13.9920    0.7960 C   0  0  0  0  0  0  0  0  0  0  0  0
    1.3980   14.7220   -4.5480 C   0  0  0  0  0  0  0  0  0  0  0  0
    0.8490   11.7480   -2.4760 C   0  0  0  0  0  0  0  0  0  0  0  0
   -7.2610   14.5770    2.0180 C   0  0  0  0  0  0  0  0  0  0  0  0
   -7.8890   14.7720    3.0650 O   0  0  0  0  0  0  0  0  0  0  0  0
    0.5310   10.4270   -2.5010 O   0  0  0  0  0  0  0  0  0  0  0  0
    0.6590   12.3770   -1.4440 O   0  0  0  0  0  0  0  0  0  0  0  0
  2  1  1  0
  2  3  1  0
  2  4  1  0
  2  5  1  0
  5  6  2  0
  5  7  1  0
  4  8  1  0
  6  9  1  0
  7 10  2  0
  8 11  2  0
  8 12  1  0
  9 13  2  0
 10 13  1  0
  9 14  1  0
 12 15  2  0
 11 16  1  0
 15 17  1  0
 16 18  1  0
 13 19  1  0
 14 20  1  0
 15 21  1  0
 16 21  2  0
 17 22  1  0
 19 23  1  0
 20 23  1  0
 23 24  2  0
 22 25  1  0
 22 26  2  0
M  END
