mac-x0404-mac-x0124
     RDKit          3D

 27 30  0  0  0  0  0  0  0  0999 V2000
    1.3820   12.4240   -2.2370 O   0  0  0  0  0  0  0  0  0  0  0  0
    0.8760   11.7320   -3.2820 C   0  0  0  0  0  0  0  0  0  0  0  0
    0.2890   10.6880   -3.0580 O   0  0  0  0  0  0  0  0  0  0  0  0
    1.1470   12.4230   -4.6250 C   0  0  0  0  0  0  0  0  0  0  0  0
    1.0500   13.8720   -4.5260 N   0  0  0  0  0  0  0  0  0  0  0  0
    1.2580   14.4080   -3.1940 C   0  0  0  0  0  0  0  0  0  0  0  0
   -0.1930   14.4400   -4.8880 C   0  0  0  0  0  0  0  0  0  0  0  0
    0.1530   15.4050   -2.9320 C   0  0  0  0  0  0  0  0  0  0  0  0
   -0.2840   15.8490   -5.1220 C   0  0  0  0  0  0  0  0  0  0  0  0
   -1.3530   13.6640   -5.0070 C   0  0  0  0  0  0  0  0  0  0  0  0
   -1.5330   16.4290   -5.4540 C   0  0  0  0  0  0  0  0  0  0  0  0
   -2.5770   14.2450   -5.3390 C   0  0  0  0  0  0  0  0  0  0  0  0
    0.8350   16.7040   -5.0350 C   0  0  0  0  0  0  0  0  0  0  0  0
   -1.0410   15.0950   -2.1690 N   0  0  0  0  0  0  0  0  0  0  0  0
   -2.6680   15.6180   -5.5570 C   0  0  0  0  0  0  0  0  0  0  0  0
   -1.6270   17.8050   -5.6850 C   0  0  0  0  0  0  0  0  0  0  0  0
    0.7300   18.0730   -5.2690 C   0  0  0  0  0  0  0  0  0  0  0  0
   -2.3240   14.9830   -2.6770 C   0  0  0  0  0  0  0  0  0  0  0  0
   -1.0660   14.9140   -0.8280 C   0  0  0  0  0  0  0  0  0  0  0  0
   -0.5040   18.6150   -5.5950 C   0  0  0  0  0  0  0  0  0  0  0  0
   -3.1730   14.7530   -1.6250 C   0  0  0  0  0  0  0  0  0  0  0  0
   -2.3770   14.7200   -0.4510 C   0  0  0  0  0  0  0  0  0  0  0  0
    0.0060   14.9460   -0.0370 N   0  0  0  0  0  0  0  0  0  0  0  0
   -2.6090   14.5570    0.9040 C   0  0  0  0  0  0  0  0  0  0  0  0
   -0.3360   14.7600    1.2410 C   0  0  0  0  0  0  0  0  0  0  0  0
   -3.8860   14.3880    1.3900 N   0  0  0  0  0  0  0  0  0  0  0  0
   -1.5660   14.5770    1.7570 N   0  0  0  0  0  0  0  0  0  0  0  0
  1  2  1  0
  2  3  2  0
  2  4  1  0
  4  5  1  0
  5  6  1  0
  5  7  1  0
  6  8  1  0
  7  9  1  0
  7 10  2  0
  9 11  2  0
 10 12  1  0
  9 13  1  0
  8 14  1  0
 11 15  1  0
 12 15  2  0
 11 16  1  0
 13 17  2  0
 14 18  1  0
 14 19  1  0
 16 20  2  0
 17 20  1  0
 18 21  2  0
 19 22  2  0
 21 22  1  0
 19 23  1  0
 22 24  1  0
 23 25  2  0
 24 26  1  0
 24 27  2  0
 25 27  1  0
M  END
