mac-x0373-mac-x0404
     RDKit          3D

 30 33  0  0  0  0  0  0  0  0999 V2000
    1.0330   13.1430   -1.9360 O   0  0  0  0  0  0  0  0  0  0  0  0
    0.1640   14.1840   -2.0630 C   0  0  0  0  0  0  0  0  0  0  0  0
    0.4650   15.3600   -2.1760 O   0  0  0  0  0  0  0  0  0  0  0  0
    1.0360   12.2130   -2.9190 C   0  0  0  0  0  0  0  0  0  0  0  0
   -1.2460   13.5840   -2.0070 C   0  0  0  0  0  0  0  0  0  0  0  0
    0.6910   11.0410   -2.8180 O   0  0  0  0  0  0  0  0  0  0  0  0
    1.5350   12.8280   -4.2400 C   0  0  0  0  0  0  0  0  0  0  0  0
    1.2710   14.2090   -4.5010 O   0  0  0  0  0  0  0  0  0  0  0  0
   -1.6860   12.6630   -3.1520 C   0  0  0  0  0  0  0  0  0  0  0  0
   -2.3920   14.3980   -1.4290 C   0  0  0  0  0  0  0  0  0  0  0  0
   -0.9440   12.4420   -4.3330 C   0  0  0  0  0  0  0  0  0  0  0  0
   -2.9030   11.9900   -3.0090 C   0  0  0  0  0  0  0  0  0  0  0  0
   -3.4450   14.9320   -2.1880 C   0  0  0  0  0  0  0  0  0  0  0  0
   -2.3830   14.6000   -0.0410 C   0  0  0  0  0  0  0  0  0  0  0  0
   -0.0310   14.6130   -4.7920 C   0  0  0  0  0  0  0  0  0  0  0  0
   -1.4080   11.5770   -5.3270 C   0  0  0  0  0  0  0  0  0  0  0  0
   -3.3640   11.1280   -4.0000 C   0  0  0  0  0  0  0  0  0  0  0  0
   -4.4620   15.6390   -1.5560 C   0  0  0  0  0  0  0  0  0  0  0  0
   -3.4000   15.3090    0.5810 C   0  0  0  0  0  0  0  0  0  0  0  0
   -0.2010   15.9750   -5.0530 C   0  0  0  0  0  0  0  0  0  0  0  0
   -1.1390   13.7720   -4.8420 C   0  0  0  0  0  0  0  0  0  0  0  0
   -2.6180   10.9190   -5.1570 C   0  0  0  0  0  0  0  0  0  0  0  0
   -4.4340   15.8220   -0.1820 C   0  0  0  0  0  0  0  0  0  0  0  0
   -1.4820   16.4880   -5.3600 C   0  0  0  0  0  0  0  0  0  0  0  0
   -2.4080   14.2760   -5.1420 C   0  0  0  0  0  0  0  0  0  0  0  0
    0.8800   16.8380   -5.0180 C   0  0  0  0  0  0  0  0  0  0  0  0
   -2.5780   15.6300   -5.3970 C   0  0  0  0  0  0  0  0  0  0  0  0
   -1.6210   17.8490   -5.6270 C   0  0  0  0  0  0  0  0  0  0  0  0
    0.7420   18.1900   -5.2860 C   0  0  0  0  0  0  0  0  0  0  0  0
   -0.5210   18.6920   -5.5950 C   0  0  0  0  0  0  0  0  0  0  0  0
  1  2  1  0
  2  3  2  0
  1  4  1  0
  2  5  1  0
  4  6  2  0
  4  7  1  0
  7  8  1  0
  5  9  1  0
  5 10  1  0
  9 11  2  0
  9 12  1  0
 10 13  2  0
 10 14  1  0
  8 15  1  0
 11 16  1  0
 12 17  2  0
 13 18  1  0
 14 19  2  0
 15 20  1  0
 15 21  2  0
 16 22  2  0
 17 22  1  0
 18 23  2  0
 19 23  1  0
 20 24  2  0
 21 25  1  0
 20 26  1  0
 24 27  1  0
 25 27  2  0
 24 28  1  0
 26 29  2  0
 28 30  2  0
 29 30  1  0
M  END
