mac-x0303-mac-x0572
     RDKit          3D

 14 15  0  0  0  0  0  0  0  0999 V2000
   -8.4080   12.9440    2.6580 N   0  0  0  0  0  0  0  0  0  0  0  0
   -8.5330   14.5020    2.0100 S   0  0  0  0  0  0  0  0  0  0  0  0
   -8.3310   15.4450    3.0930 O   0  0  0  0  0  0  0  0  0  0  0  0
   -9.7130   14.5280    1.1820 O   0  0  0  0  0  0  0  0  0  0  0  0
   -7.1130   14.7010    1.0070 C   0  0  0  0  0  0  0  0  0  0  0  0
   -7.3050   14.9670   -0.4440 N   0  0  2  0  0  0  0  0  0  0  0  0
   -5.8750   14.6550    1.4130 N   0  0  0  0  0  0  0  0  0  0  0  0
   -7.8990   13.9220   -1.0720 O   0  0  0  0  0  0  0  0  0  0  0  0
   -5.9100   15.0720   -0.8430 C   0  0  0  0  0  0  0  0  0  0  0  0
   -5.1080   14.8830    0.2720 C   0  0  0  0  0  0  0  0  0  0  0  0
   -5.3900   15.3120   -2.0910 C   0  0  0  0  0  0  0  0  0  0  0  0
   -3.7360   14.9270    0.1820 C   0  0  0  0  0  0  0  0  0  0  0  0
   -4.0000   15.3600   -2.2050 C   0  0  0  0  0  0  0  0  0  0  0  0
   -3.1830   15.1660   -1.0770 C   0  0  0  0  0  0  0  0  0  0  0  0
  2  1  1  0
  2  3  2  0
  2  4  2  0
  2  5  1  0
  5  6  1  0
  5  7  2  0
  6  8  1  6
  6  9  1  0
  7 10  1  0
  9 10  2  0
  9 11  1  0
 10 12  1  0
 11 13  2  0
 12 14  2  0
 13 14  1  0
M  CHG  2   6   1   8  -1
M  END
