mac-x0178-diamond-x0926_0_A
     RDKit          3D

 23 24  0  0  0  0  0  0  0  0999 V2000
   -0.4270   18.3400   -6.2390 N   0  0  0  0  0  0  0  0  0  0  0  0
   -1.5740   17.2190   -5.7840 S   0  0  2  0  0  0  0  0  0  0  0  0
   -2.4810   17.0040   -6.8760 O   0  0  0  0  0  0  0  0  0  0  0  0
   -2.0220   17.6370   -4.4660 N   0  0  0  0  0  0  0  0  0  0  0  0
   -0.8620   15.7990   -5.0270 C   0  0  0  0  0  0  0  0  0  0  0  0
   -2.5140   16.3790   -3.8300 C   0  0  0  0  0  0  0  0  0  0  0  0
    0.2960   16.0090   -4.2730 C   0  0  0  0  0  0  0  0  0  0  0  0
   -1.4470   14.5330   -5.1350 C   0  0  0  0  0  0  0  0  0  0  0  0
   -1.6940   15.8890   -2.6580 C   0  0  0  0  0  0  0  0  0  0  0  0
    0.8680   14.9400   -3.5950 C   0  0  0  0  0  0  0  0  0  0  0  0
   -0.8660   13.4630   -4.4510 C   0  0  0  0  0  0  0  0  0  0  0  0
   -2.5930   15.9760   -1.4540 C   0  0  0  0  0  0  0  0  0  0  0  0
    0.2870   13.6670   -3.6720 C   0  0  0  0  0  0  0  0  0  0  0  0
    0.8660   12.5280   -2.9310 C   0  0  0  0  0  0  0  0  0  0  0  0
   -3.0620   14.7150   -0.9740 N   0  0  0  0  0  0  0  0  0  0  0  0
    1.8190   12.6030   -2.1860 O   0  0  0  0  0  0  0  0  0  0  0  0
    0.2200   11.3700   -3.1250 O   0  0  0  0  0  0  0  0  0  0  0  0
   -2.6570   14.4300    0.2910 C   0  0  0  0  0  0  0  0  0  0  0  0
   -4.4480   14.6070   -1.2290 N   0  0  0  0  0  0  0  0  0  0  0  0
   -3.3960   14.7800    1.3270 C   0  0  0  0  0  0  0  0  0  0  0  0
   -5.3260   15.0230   -0.2540 C   0  0  0  0  0  0  0  0  0  0  0  0
   -6.5470   15.0190   -0.4480 O   0  0  0  0  0  0  0  0  0  0  0  0
   -4.6820   15.4700    1.0610 C   0  0  0  0  0  0  0  0  0  0  0  0
  2  1  1  6
  2  3  2  0
  2  4  2  0
  2  5  1  0
  4  6  1  0
  5  7  2  0
  5  8  1  0
  6  9  1  0
  7 10  1  0
  8 11  2  0
  9 12  1  0
 10 13  2  0
 11 13  1  0
 13 14  1  0
 12 15  1  0
 14 16  2  0
 14 17  1  0
 15 18  1  0
 15 19  1  0
 18 20  2  0
 19 21  1  0
 21 22  2  0
 20 23  1  0
 21 23  1  0
M  END
