mac-x0417-mac-x0590
     RDKit          3D

 30 34  0  0  0  0  0  0  0  0999 V2000
    0.3010   12.0980   -1.3530 O   0  0  0  0  0  0  0  0  0  0  0  0
    0.4790   11.4500   -2.5320 C   0  0  0  0  0  0  0  0  0  0  0  0
    0.3110   10.2580   -2.6570 O   0  0  0  0  0  0  0  0  0  0  0  0
    0.9480   12.4700   -3.5470 C   0  0  2  0  0  0  0  0  0  0  0  0
    0.4930   12.5820   -5.0260 C   0  0  2  0  0  0  0  0  0  0  0  0
    2.3650   12.2240   -3.5630 O   0  0  0  0  0  0  0  0  0  0  0  0
    0.2400   11.4820   -5.9980 C   0  0  0  0  0  0  0  0  0  0  0  0
    1.7470   13.2880   -5.5470 C   0  0  0  0  0  0  0  0  0  0  0  0
    2.8170   13.1810   -4.4880 C   0  0  0  0  0  0  0  0  0  0  0  0
   -0.6360   13.6560   -5.2420 C   0  0  0  0  0  0  0  0  0  0  0  0
    1.1780   11.2890   -6.9320 N   0  0  0  0  0  0  0  0  0  0  0  0
   -0.8290   10.5720   -6.1610 C   0  0  0  0  0  0  0  0  0  0  0  0
   -1.7420   13.8300   -4.1970 C   0  0  0  0  0  0  0  0  0  0  0  0
    0.7440   10.2630   -7.7270 O   0  0  0  0  0  0  0  0  0  0  0  0
   -0.4520    9.8300   -7.2690 C   0  0  0  0  0  0  0  0  0  0  0  0
   -2.0520   10.2690   -5.5450 C   0  0  0  0  0  0  0  0  0  0  0  0
   -1.4590   14.9030   -3.1440 C   0  0  0  0  0  0  0  0  0  0  0  0
   -1.1970    8.8000   -7.8190 C   0  0  0  0  0  0  0  0  0  0  0  0
   -2.8310    9.2350   -6.0710 C   0  0  0  0  0  0  0  0  0  0  0  0
   -2.3070   14.7230   -1.9710 N   0  0  0  0  0  0  0  0  0  0  0  0
   -2.4100    8.5120   -7.1910 C   0  0  0  0  0  0  0  0  0  0  0  0
   -3.6290   15.3000   -2.1080 C   0  0  0  0  0  0  0  0  0  0  0  0
   -1.6660   15.0540   -0.7310 C   0  0  1  0  0  0  0  0  0  0  0  0
   -4.4600   15.1500   -0.9060 N   0  0  0  0  0  0  0  0  0  0  0  0
   -2.5030   14.6660    0.4530 C   0  0  2  0  0  0  0  0  0  0  0  0
   -0.3960   14.4110   -0.4220 N   0  0  0  0  0  0  0  0  0  0  0  0
   -3.7950   15.4910    0.3390 C   0  0  2  0  0  0  0  0  0  0  0  0
   -1.5900   15.0280    1.5380 N   0  0  0  0  0  0  0  0  0  0  0  0
   -0.2740   14.6330    1.0230 C   0  0  0  0  0  0  0  0  0  0  0  0
   -4.8250   15.2370    1.3320 N   0  0  0  0  0  0  0  0  0  0  0  0
  1  2  1  0
  2  3  2  0
  4  2  1  6
  4  5  1  0
  4  6  1  0
  5  7  1  0
  5  8  1  0
  6  9  1  0
  8  9  1  0
  5 10  1  1
  7 11  2  0
  7 12  1  0
 10 13  1  0
 11 14  1  0
 12 15  2  0
 14 15  1  0
 12 16  1  0
 13 17  1  0
 15 18  1  0
 16 19  2  0
 17 20  1  0
 18 21  2  0
 19 21  1  0
 20 22  1  0
 20 23  1  0
 22 24  1  0
 23 25  1  0
 23 26  1  1
 24 27  1  0
 25 27  1  0
 25 28  1  1
 26 29  1  0
 28 29  1  0
 27 30  1  1
M  END
