mac-x0228-mac-x0319
     RDKit          3D

 23 25  0  0  0  0  0  0  0  0999 V2000
   -1.6320   14.4060   -1.8430 O   0  0  0  0  0  0  0  0  0  0  0  0
   -2.6110   15.2260   -2.4850 C   0  0  2  0  0  0  0  0  0  0  0  0
   -3.9410   15.0820   -1.9000 C   0  0  0  0  0  0  0  0  0  0  0  0
   -2.6310   15.0320   -4.0020 C   0  0  0  0  0  0  0  0  0  0  0  0
   -4.0990   14.8660   -0.5380 C   0  0  0  0  0  0  0  0  0  0  0  0
   -5.0360   15.1710   -2.7520 C   0  0  0  0  0  0  0  0  0  0  0  0
   -1.2050   15.0800   -4.2430 C   0  0  0  0  0  0  0  0  0  0  0  0
   -5.3830   14.7510   -0.0750 C   0  0  0  0  0  0  0  0  0  0  0  0
   -6.3210   15.0640   -2.2750 C   0  0  0  0  0  0  0  0  0  0  0  0
   -0.6020   16.2810   -4.5120 C   0  0  0  0  0  0  0  0  0  0  0  0
   -0.4820   13.9070   -4.1510 C   0  0  0  0  0  0  0  0  0  0  0  0
   -6.4670   14.8570   -0.9300 C   0  0  0  0  0  0  0  0  0  0  0  0
   -5.8510   14.5100    1.2940 C   0  0  0  0  0  0  0  0  0  0  0  0
    0.8820   13.9230   -4.3110 C   0  0  0  0  0  0  0  0  0  0  0  0
    0.7460   16.3110   -4.6750 C   0  0  0  0  0  0  0  0  0  0  0  0
   -7.6780   14.7330   -0.3130 O   0  0  0  0  0  0  0  0  0  0  0  0
   -7.3530   14.3970    1.0560 C   0  0  0  0  0  0  0  0  0  0  0  0
    1.6020   12.6230   -4.1720 C   0  0  0  0  0  0  0  0  0  0  0  0
    1.3230   17.5030   -4.9300 O   0  0  0  0  0  0  0  0  0  0  0  0
    1.5100   15.1440   -4.5710 C   0  0  0  0  0  0  0  0  0  0  0  0
    1.0960   11.9630   -2.9100 C   0  0  0  0  0  0  0  0  0  0  0  0
    0.4820   10.7770   -3.1100 O   0  0  0  0  0  0  0  0  0  0  0  0
    1.1980   12.4220   -1.7880 O   0  0  0  0  0  0  0  0  0  0  0  0
  2  1  1  1
  2  3  1  0
  2  4  1  0
  3  5  2  0
  3  6  1  0
  4  7  1  0
  5  8  1  0
  6  9  2  0
  7 10  2  0
  7 11  1  0
  8 12  2  0
  9 12  1  0
  8 13  1  0
 11 14  2  0
 10 15  1  0
 12 16  1  0
 13 17  1  0
 16 17  1  0
 14 18  1  0
 15 19  1  0
 14 20  1  0
 15 20  2  0
 18 21  1  0
 21 22  1  0
 21 23  2  0
M  END
