mac-x0319-diamond-x0104_0_A
     RDKit          3D

 29 31  0  0  0  0  0  0  0  0999 V2000
    0.5010   10.4720   -2.5050 O   0  0  0  0  0  0  0  0  0  0  0  0
    0.7750   11.8050   -2.4810 C   0  0  0  0  0  0  0  0  0  0  0  0
    0.6780   12.3990   -1.4180 O   0  0  0  0  0  0  0  0  0  0  0  0
    1.1640   12.3810   -3.8340 C   0  0  0  0  0  0  0  0  0  0  0  0
    0.5310   13.7320   -4.0800 C   0  0  0  0  0  0  0  0  0  0  0  0
    1.2890   14.8810   -4.3760 C   0  0  0  0  0  0  0  0  0  0  0  0
   -0.8650   13.8440   -4.0060 C   0  0  0  0  0  0  0  0  0  0  0  0
    0.6310   16.0970   -4.5820 C   0  0  0  0  0  0  0  0  0  0  0  0
   -1.5130   15.0680   -4.2090 C   0  0  0  0  0  0  0  0  0  0  0  0
    1.2810   17.2540   -4.8670 O   0  0  0  0  0  0  0  0  0  0  0  0
   -3.0170   15.1620   -4.1010 C   0  0  0  0  0  0  0  0  0  0  0  0
   -0.7460   16.1940   -4.5040 C   0  0  0  0  0  0  0  0  0  0  0  0
   -3.4570   15.1510   -2.6280 C   0  0  0  0  0  0  0  0  0  0  0  0
   -4.8240   14.7690   -2.5120 O   0  0  0  0  0  0  0  0  0  0  0  0
   -5.2780   14.7800   -1.2070 C   0  0  0  0  0  0  0  0  0  0  0  0
   -4.4100   14.8150   -0.1700 N   0  0  0  0  0  0  0  0  0  0  0  0
   -6.6510   14.7500   -1.0520 C   0  0  0  0  0  0  0  0  0  0  0  0
   -4.9610   14.8200    1.0680 C   0  0  0  0  0  0  0  0  0  0  0  0
   -7.1850   14.7520    0.2350 C   0  0  0  0  0  0  0  0  0  0  0  0
   -6.3350   14.7890    1.3330 C   0  0  0  0  0  0  0  0  0  0  0  0
   -6.7620   14.8030    2.6760 N   0  0  0  0  0  0  0  0  0  0  0  0
   -8.0190   15.0980    3.1900 C   0  0  0  0  0  0  0  0  0  0  0  0
   -7.9970   15.0710    4.5780 N   0  0  0  0  0  0  0  0  0  0  0  0
   -9.0080   15.3490    2.5090 O   0  0  0  0  0  0  0  0  0  0  0  0
   -9.1140   15.0860    5.3880 C   0  0  0  0  0  0  0  0  0  0  0  0
   -9.2770   15.2140    6.7470 C   0  0  0  0  0  0  0  0  0  0  0  0
  -10.6010   14.9100    4.5710 S   0  0  0  0  0  0  0  0  0  0  0  0
  -11.4850   15.0040    6.0380 C   0  0  0  0  0  0  0  0  0  0  0  0
  -10.6540   15.1680    7.1260 C   0  0  0  0  0  0  0  0  0  0  0  0
  1  2  1  0
  2  3  2  0
  2  4  1  0
  4  5  1  0
  5  6  2  0
  5  7  1  0
  6  8  1  0
  7  9  2  0
  8 10  1  0
  9 11  1  0
  8 12  2  0
  9 12  1  0
 11 13  1  0
 13 14  1  0
 14 15  1  0
 15 16  2  0
 15 17  1  0
 16 18  1  0
 17 19  2  0
 18 20  2  0
 19 20  1  0
 20 21  1  0
 21 22  1  0
 22 23  1  0
 22 24  2  0
 23 25  1  0
 25 26  2  0
 25 27  1  0
 27 28  1  0
 26 29  1  0
 28 29  2  0
M  END
