mac-x0412-diamond-x0438_0_A
     RDKit          3D

 16 17  0  0  0  0  0  0  0  0999 V2000
   -7.9760   15.0510   -0.7200 O   0  0  0  0  0  0  0  0  0  0  0  0
   -6.9740   14.8990   -0.0320 C   0  0  0  0  0  0  0  0  0  0  0  0
   -7.0310   14.6370    1.3330 N   0  0  0  0  0  0  0  0  0  0  0  0
   -5.6160   14.9840   -0.6280 C   0  0  0  0  0  0  0  0  0  0  0  0
   -8.2980   14.1460    1.8880 C   0  0  0  0  0  0  0  0  0  0  0  0
   -4.5030   15.0200    0.2190 C   0  0  0  0  0  0  0  0  0  0  0  0
   -5.9270   14.8050    2.1510 C   0  0  0  0  0  0  0  0  0  0  0  0
   -5.4540   15.0230   -2.0120 C   0  0  0  0  0  0  0  0  0  0  0  0
   -9.3520   15.3530    2.7090 S   0  0  0  0  0  0  0  0  0  0  0  0
   -4.6960   14.9900    1.6560 C   0  0  0  0  0  0  0  0  0  0  0  0
   -3.2250   15.0830   -0.3270 C   0  0  0  0  0  0  0  0  0  0  0  0
   -4.1730   15.0900   -2.5520 C   0  0  0  0  0  0  0  0  0  0  0  0
   -8.4210   15.8640    4.1330 C   0  0  0  0  0  0  0  0  0  0  0  0
  -10.5370   14.6590    3.1860 O   0  0  0  0  0  0  0  0  0  0  0  0
   -9.5200   16.4960    1.8330 O   0  0  0  0  0  0  0  0  0  0  0  0
   -3.0630   15.1160   -1.7130 C   0  0  0  0  0  0  0  0  0  0  0  0
  1  2  2  0
  2  3  1  0
  2  4  1  0
  3  5  1  0
  4  6  2  0
  3  7  1  0
  4  8  1  0
  9  5  1  0
  6 10  1  0
  7 10  2  0
  6 11  1  0
  8 12  2  0
  9 13  1  0
  9 14  2  0
  9 15  2  0
 11 16  2  0
 12 16  1  0
M  END
