mac-x0138-diamond-x0950_1_A
     RDKit          3D

 20 21  0  0  0  0  0  0  0  0999 V2000
   -1.8730   14.8200   -3.5730 C   0  0  0  0  0  0  0  0  0  0  0  0
   -2.8040   14.9970   -2.4880 N   0  0  0  0  0  0  0  0  0  0  0  0
   -4.1440   15.2190   -2.5520 C   0  0  0  0  0  0  0  0  0  0  0  0
   -2.4780   14.9760   -1.1800 C   0  0  0  0  0  0  0  0  0  0  0  0
   -4.6780   15.3420   -1.3480 N   0  0  0  0  0  0  0  0  0  0  0  0
   -3.6260   15.1920   -0.4720 C   0  0  0  0  0  0  0  0  0  0  0  0
   -1.2980   14.7940   -0.6940 N   0  0  0  0  0  0  0  0  0  0  0  0
   -3.5010   15.2190    0.9370 C   0  0  0  0  0  0  0  0  0  0  0  0
   -1.2770   14.8330    0.6250 C   0  0  0  0  0  0  0  0  0  0  0  0
   -4.5820   15.4440    1.7650 N   0  0  0  0  0  0  0  0  0  0  0  0
   -0.0490   14.6290    1.0550 N   0  0  0  0  0  0  0  0  0  0  0  0
   -2.2750   15.0240    1.4910 N   0  0  0  0  0  0  0  0  0  0  0  0
    0.2950   13.6350    0.0740 C   0  0  0  0  0  0  0  0  0  0  0  0
    1.0730   14.1270   -1.1720 C   0  0  0  0  0  0  0  0  0  0  0  0
    1.7170   13.0070   -1.8660 O   0  0  0  0  0  0  0  0  0  0  0  0
    1.0120   12.2770   -2.7960 C   0  0  0  0  0  0  0  0  0  0  0  0
    1.4400   12.6030   -4.2410 C   0  0  2  0  0  0  0  0  0  0  0  0
    0.1630   11.4260   -2.5270 O   0  0  0  0  0  0  0  0  0  0  0  0
    1.2110   14.0610   -4.6080 C   0  0  0  0  0  0  0  0  0  0  0  0
    0.7280   11.7950   -5.1820 O   0  0  0  0  0  0  0  0  0  0  0  0
  1  2  1  0
  2  3  1  0
  2  4  1  0
  3  5  2  0
  4  6  2  0
  5  6  1  0
  4  7  1  0
  6  8  1  0
  7  9  2  0
  8 10  1  0
  9 11  1  0
  8 12  2  0
  9 12  1  0
 11 13  1  0
 13 14  1  0
 14 15  1  0
 15 16  1  0
 16 17  1  0
 16 18  2  0
 17 19  1  6
 17 20  1  0
M  END
