mac-x0226-mac-x0178
     RDKit          3D

 25 27  0  0  0  0  0  0  0  0999 V2000
    0.5400   12.5940   -2.0830 N   0  0  0  0  0  0  0  0  0  0  0  0
    0.4980   11.3390   -2.5320 C   0  0  0  0  0  0  0  0  0  0  0  0
    0.3800   10.2940   -1.9340 O   0  0  0  0  0  0  0  0  0  0  0  0
    0.0860   12.9640   -3.1780 C   0  0  0  0  0  0  0  0  0  0  0  0
    0.5980   11.4750   -3.9950 C   0  0  0  0  0  0  0  0  0  0  0  0
   -0.2260   14.2340   -3.7170 C   0  0  0  0  0  0  0  0  0  0  0  0
    1.3870   12.3750   -4.7690 C   0  0  0  0  0  0  0  0  0  0  0  0
   -0.0690   10.7310   -4.9580 C   0  0  0  0  0  0  0  0  0  0  0  0
    0.5800   15.3620   -3.6370 C   0  0  0  0  0  0  0  0  0  0  0  0
   -1.4420   14.2090   -4.3740 C   0  0  0  0  0  0  0  0  0  0  0  0
    1.2410   12.2030   -6.0860 N   0  0  0  0  0  0  0  0  0  0  0  0
    0.3450   11.1800   -6.1990 N   0  0  0  0  0  0  0  0  0  0  0  0
    0.1280   16.5120   -4.2660 C   0  0  0  0  0  0  0  0  0  0  0  0
   -1.8920   15.3340   -4.9920 C   0  0  0  0  0  0  0  0  0  0  0  0
   -0.0470   10.6880   -7.4750 C   0  0  0  0  0  0  0  0  0  0  0  0
   -1.1050   16.4700   -4.9390 C   0  0  0  0  0  0  0  0  0  0  0  0
   -1.7190   17.8860   -5.7700 S   0  0  0  0  0  0  0  0  0  0  0  0
   -1.2030    9.9330   -7.6640 C   0  0  0  0  0  0  0  0  0  0  0  0
    0.7580   10.9640   -8.5690 C   0  0  0  0  0  0  0  0  0  0  0  0
   -0.3110   18.4900   -6.4510 N   0  0  0  0  0  0  0  0  0  0  0  0
   -2.5680   17.4140   -6.8330 O   0  0  0  0  0  0  0  0  0  0  0  0
   -2.1560   18.8370   -4.7850 O   0  0  0  0  0  0  0  0  0  0  0  0
   -1.5270    9.4710   -8.9490 C   0  0  0  0  0  0  0  0  0  0  0  0
    0.4460   10.5120   -9.8480 C   0  0  0  0  0  0  0  0  0  0  0  0
   -0.7040    9.7600  -10.0370 C   0  0  0  0  0  0  0  0  0  0  0  0
  1  2  1  0
  2  3  2  0
  1  4  2  3
  2  5  1  0
  4  6  1  0
  5  7  1  0
  5  8  2  0
  6  9  2  0
  6 10  1  0
  7 11  2  0
  8 12  1  0
 11 12  1  0
  9 13  1  0
 10 14  2  0
 12 15  1  0
 13 16  2  0
 14 16  1  0
 16 17  1  0
 15 18  2  0
 15 19  1  0
 17 20  1  0
 17 21  2  0
 17 22  2  0
 18 23  1  0
 19 24  2  0
 23 25  2  0
 24 25  1  0
M  END
