mac-x0161-diamond-x0962_3_A
     RDKit          3D

 25 28  0  0  0  0  0  0  0  0999 V2000
   -4.4950   15.5260    1.2560 N   0  0  0  0  0  0  0  0  0  0  0  0
   -3.6460   14.9440    0.2250 C   0  0  2  0  0  0  0  0  0  0  0  0
   -2.1580   15.2680    0.4070 C   0  0  2  0  0  0  0  0  0  0  0  0
   -4.1250   15.4140   -1.0530 N   0  0  0  0  0  0  0  0  0  0  0  0
   -3.2710   15.2490   -2.2430 C   0  0  0  0  0  0  0  0  0  0  0  0
   -1.4240   14.7210   -0.7890 C   0  0  1  0  0  0  0  0  0  0  0  0
   -1.4270   14.6660    1.5300 N   0  0  0  0  0  0  0  0  0  0  0  0
   -1.8330   15.3700   -2.0100 N   0  0  0  0  0  0  0  0  0  0  0  0
   -0.0500   14.9030   -0.3780 N   0  0  0  0  0  0  0  0  0  0  0  0
   -0.0710   14.5220    1.0240 C   0  0  0  0  0  0  0  0  0  0  0  0
   -0.9920   15.0470   -3.1740 C   0  0  0  0  0  0  0  0  0  0  0  0
   -0.8060   13.5980   -3.4600 C   0  0  0  0  0  0  0  0  0  0  0  0
   -1.3020   12.7250   -4.4030 C   0  0  0  0  0  0  0  0  0  0  0  0
    0.0350   12.9220   -2.6280 O   0  0  0  0  0  0  0  0  0  0  0  0
    0.1030   11.5910   -3.0040 N   0  0  0  0  0  0  0  0  0  0  0  0
   -0.7010   11.5030   -4.0610 C   0  0  0  0  0  0  0  0  0  0  0  0
   -0.8810   10.3240   -4.6890 O   0  0  0  0  0  0  0  0  0  0  0  0
   -1.7100   10.3520   -5.8550 C   0  0  0  0  0  0  0  0  0  0  0  0
   -1.0850    9.6150   -6.9940 C   0  0  0  0  0  0  0  0  0  0  0  0
    0.0630    9.9050   -7.6780 C   0  0  0  0  0  0  0  0  0  0  0  0
   -1.6600    8.4710   -7.4970 N   0  0  0  0  0  0  0  0  0  0  0  0
    0.9190   10.9880   -7.4510 C   0  0  0  0  0  0  0  0  0  0  0  0
    0.2000    8.9190   -8.6150 N   0  0  0  0  0  0  0  0  0  0  0  0
   -0.8640    8.0760   -8.4660 C   0  0  0  0  0  0  0  0  0  0  0  0
    1.5640   11.8860   -7.1520 N   0  0  0  0  0  0  0  0  0  0  0  0
  2  1  1  1
  2  3  1  0
  2  4  1  0
  4  5  1  0
  3  6  1  0
  3  7  1  1
  5  8  1  0
  6  8  1  0
  6  9  1  1
  7 10  1  0
  9 10  1  0
  8 11  1  0
 11 12  1  0
 12 13  2  0
 12 14  1  0
 14 15  1  0
 13 16  1  0
 15 16  2  0
 16 17  1  0
 17 18  1  0
 18 19  1  0
 19 20  2  0
 19 21  1  0
 20 22  1  0
 20 23  1  0
 21 24  2  0
 23 24  1  0
 22 25  3  0
M  END
