mac-x0546-mac-x0132
     RDKit          3D

 27 30  0  0  0  0  0  0  0  0999 V2000
   -3.9970   15.2260   -6.6800 C   0  0  0  0  0  0  0  0  0  0  0  0
   -3.7440   15.6760   -5.3370 N   0  0  0  0  0  0  0  0  0  0  0  0
   -4.5710   14.7470   -4.5470 C   0  0  0  0  0  0  0  0  0  0  0  0
   -2.4330   15.8800   -4.9450 C   0  0  0  0  0  0  0  0  0  0  0  0
   -1.7590   14.8230   -4.5010 C   0  0  0  0  0  0  0  0  0  0  0  0
   -1.7620   17.2060   -4.9790 C   0  0  0  0  0  0  0  0  0  0  0  0
   -4.6120   14.8980   -3.0420 C   0  0  0  0  0  0  0  0  0  0  0  0
   -0.3900   14.9430   -4.0000 C   0  0  2  0  0  0  0  0  0  0  0  0
   -0.4260   17.3730   -4.8140 C   0  0  0  0  0  0  0  0  0  0  0  0
   -5.8510   14.6610   -2.4510 C   0  0  0  0  0  0  0  0  0  0  0  0
   -3.5240   15.2310   -2.2270 C   0  0  0  0  0  0  0  0  0  0  0  0
    0.3160   16.1190   -4.6160 C   0  0  0  0  0  0  0  0  0  0  0  0
    0.6780   13.9340   -4.2280 C   0  0  0  0  0  0  0  0  0  0  0  0
   -6.0620   14.7320   -1.0930 C   0  0  0  0  0  0  0  0  0  0  0  0
   -3.7180   15.3140   -0.8460 C   0  0  0  0  0  0  0  0  0  0  0  0
    0.6060   12.4650   -3.9950 C   0  0  0  0  0  0  0  0  0  0  0  0
    1.5470   15.9080   -4.9070 N   0  0  0  0  0  0  0  0  0  0  0  0
    1.7360   14.5680   -4.6690 C   0  0  0  0  0  0  0  0  0  0  0  0
   -4.9830   15.0630   -0.2840 C   0  0  0  0  0  0  0  0  0  0  0  0
   -7.2860   14.4760   -0.6240 N   0  0  0  0  0  0  0  0  0  0  0  0
    0.2580   11.9750   -2.6010 C   0  0  0  0  0  0  0  0  0  0  0  0
   -5.2680   15.1170    1.0680 C   0  0  0  0  0  0  0  0  0  0  0  0
   -7.4390   14.5460    0.6980 C   0  0  0  0  0  0  0  0  0  0  0  0
    0.4990   12.5080   -1.5250 O   0  0  0  0  0  0  0  0  0  0  0  0
   -0.3900   10.7880   -2.6670 O   0  0  0  0  0  0  0  0  0  0  0  0
   -4.2710   15.4600    1.9710 N   0  0  0  0  0  0  0  0  0  0  0  0
   -6.4880   14.8580    1.5790 N   0  0  0  0  0  0  0  0  0  0  0  0
  1  2  1  0
  2  3  1  0
  2  4  1  0
  4  5  2  0
  4  6  1  0
  3  7  1  0
  8  5  1  6
  6  9  2  0
  7 10  2  0
  7 11  1  0
  8 12  1  0
  9 12  1  0
  8 13  1  0
 10 14  1  0
 11 15  2  0
 13 16  1  0
 12 17  2  0
 13 18  2  0
 17 18  1  0
 14 19  2  0
 15 19  1  0
 14 20  1  0
 16 21  1  0
 19 22  1  0
 20 23  2  0
 21 24  2  0
 21 25  1  0
 22 26  1  0
 22 27  2  0
 23 27  1  0
M  END
