mac-x0394-mac-x0138
     RDKit          3D

 24 26  0  0  0  0  0  0  0  0999 V2000
    1.1690   18.3090   -5.8940 Cl  0  0  0  0  0  0  0  0  0  0  0  0
    0.4330   16.9250   -5.2190 C   0  0  0  0  0  0  0  0  0  0  0  0
   -0.9270   16.8780   -5.2710 C   0  0  0  0  0  0  0  0  0  0  0  0
    1.1640   15.8760   -4.6420 C   0  0  0  0  0  0  0  0  0  0  0  0
    0.5260   14.7680   -4.0710 C   0  0  0  0  0  0  0  0  0  0  0  0
   -1.5720   15.8010   -4.7230 C   0  0  0  0  0  0  0  0  0  0  0  0
   -3.2760   15.8080   -4.8540 Cl  0  0  0  0  0  0  0  0  0  0  0  0
    1.4480   13.6890   -3.4780 C   0  0  0  0  0  0  0  0  0  0  0  0
   -0.8870   14.7560   -4.0940 C   0  0  0  0  0  0  0  0  0  0  0  0
    0.8080   12.6190   -2.6020 C   0  0  0  0  0  0  0  0  0  0  0  0
   -1.7180   13.6910   -3.4700 C   0  0  0  0  0  0  0  0  0  0  0  0
    0.3420   11.5290   -3.2590 O   0  0  0  0  0  0  0  0  0  0  0  0
    0.7170   12.7130   -1.3830 O   0  0  0  0  0  0  0  0  0  0  0  0
   -2.5200   14.2380   -2.3520 N   0  0  0  0  0  0  0  0  0  0  0  0
   -3.8010   14.7210   -2.4650 C   0  0  0  0  0  0  0  0  0  0  0  0
   -2.1700   14.3660   -1.0090 C   0  0  0  0  0  0  0  0  0  0  0  0
   -4.2940   15.1270   -1.3180 N   0  0  0  0  0  0  0  0  0  0  0  0
   -3.2990   14.9070   -0.4030 C   0  0  0  0  0  0  0  0  0  0  0  0
   -1.0130   14.0450   -0.3800 N   0  0  0  0  0  0  0  0  0  0  0  0
   -3.2350   15.1190    0.9830 C   0  0  0  0  0  0  0  0  0  0  0  0
   -1.0780   14.3030    0.9490 C   0  0  0  0  0  0  0  0  0  0  0  0
   -4.2820   15.6290    1.7330 N   0  0  0  0  0  0  0  0  0  0  0  0
    0.0080   14.0190    1.7300 N   0  0  0  0  0  0  0  0  0  0  0  0
   -2.1010   14.8060    1.6290 N   0  0  0  0  0  0  0  0  0  0  0  0
  1  2  1  0
  2  3  2  0
  2  4  1  0
  4  5  2  0
  3  6  1  0
  6  7  1  0
  5  8  1  0
  5  9  1  0
  6  9  2  0
  8 10  1  0
  9 11  1  0
 10 12  1  0
 10 13  2  0
 11 14  1  0
 14 15  1  0
 14 16  1  0
 15 17  2  0
 16 18  2  0
 17 18  1  0
 16 19  1  0
 18 20  1  0
 19 21  2  0
 20 22  1  0
 21 23  1  0
 20 24  2  0
 21 24  1  0
M  END
