mac-x0496-diamond-x1012_0_A
     RDKit          3D

 31 33  0  0  0  0  0  0  0  0999 V2000
   -9.6950   17.8100    4.7960 C   0  0  0  0  0  0  0  0  0  0  0  0
   -9.8930   16.8180    3.7180 C   0  0  0  0  0  0  0  0  0  0  0  0
  -10.9940   16.7690    2.9590 N   0  0  0  0  0  0  0  0  0  0  0  0
   -8.9550   15.8700    3.4200 N   0  0  0  0  0  0  0  0  0  0  0  0
  -10.7480   15.7060    2.0890 O   0  0  0  0  0  0  0  0  0  0  0  0
   -9.5210   15.2180    2.4260 C   0  0  0  0  0  0  0  0  0  0  0  0
   -9.0190   14.0560    1.6550 C   0  0  0  0  0  0  0  0  0  0  0  0
   -7.5800   14.1380    1.5340 N   0  0  0  0  0  0  0  0  0  0  0  0
   -7.0040   14.5950    0.3740 C   0  0  0  0  0  0  0  0  0  0  0  0
   -7.6490   14.8760   -0.6270 O   0  0  0  0  0  0  0  0  0  0  0  0
   -5.5350   14.7330    0.3820 C   0  0  0  0  0  0  0  0  0  0  0  0
   -4.8000   14.8160    1.5690 C   0  0  0  0  0  0  0  0  0  0  0  0
   -4.8820   14.7770   -0.8420 C   0  0  0  0  0  0  0  0  0  0  0  0
   -3.4200   14.9360    1.5380 C   0  0  0  0  0  0  0  0  0  0  0  0
   -3.5060   14.8980   -0.8610 C   0  0  0  0  0  0  0  0  0  0  0  0
   -2.7960   14.9480   -2.1210 C   0  0  0  0  0  0  0  0  0  0  0  0
   -2.7700   14.9760    0.3240 C   0  0  0  0  0  0  0  0  0  0  0  0
   -1.6420   14.4570   -2.1760 N   0  0  0  0  0  0  0  0  0  0  0  0
   -3.4760   15.5740   -3.0960 O   0  0  0  0  0  0  0  0  0  0  0  0
   -0.8130   14.5630   -3.3330 C   0  0  2  0  0  0  0  0  0  0  0  0
   -1.5250   15.0020   -4.5800 C   0  0  0  0  0  0  0  0  0  0  0  0
    0.0830   13.4330   -3.7170 C   0  0  2  0  0  0  0  0  0  0  0  0
    0.4090   12.5230   -2.5380 C   0  0  0  0  0  0  0  0  0  0  0  0
    1.2260   14.1830   -4.4290 C   0  0  0  0  0  0  0  0  0  0  0  0
   -0.6080   15.9850   -5.0940 N   0  0  0  0  0  0  0  0  0  0  0  0
   -1.0880   17.2670   -4.9090 C   0  0  0  0  0  0  0  0  0  0  0  0
    0.4920   11.2170   -2.8580 O   0  0  0  0  0  0  0  0  0  0  0  0
    0.5760   12.8610   -1.3670 O   0  0  0  0  0  0  0  0  0  0  0  0
    0.8410   15.6410   -4.8780 C   0  0  0  0  0  0  0  0  0  0  0  0
   -0.1640   18.2460   -4.8120 N   0  0  0  0  0  0  0  0  0  0  0  0
   -2.2800   17.5680   -4.8190 O   0  0  0  0  0  0  0  0  0  0  0  0
  1  2  1  0
  2  3  2  0
  2  4  1  0
  3  5  1  0
  4  6  2  0
  5  6  1  0
  6  7  1  0
  7  8  1  0
  8  9  1  0
  9 10  2  0
  9 11  1  0
 11 12  2  0
 11 13  1  0
 12 14  1  0
 13 15  2  0
 15 16  1  0
 14 17  2  0
 15 17  1  0
 16 18  2  3
 16 19  1  0
 20 18  1  1
 20 21  1  0
 20 22  1  0
 22 23  1  1
 22 24  1  0
 21 25  1  0
 25 26  1  0
 23 27  1  0
 23 28  2  0
 24 29  1  0
 25 29  1  0
 26 30  1  0
 26 31  2  0
M  END
