mac-x0567-mac-x0588
     RDKit          3D

 17 19  0  0  0  0  0  0  0  0999 V2000
    0.5140   14.2300   -0.2510 N   0  0  0  0  0  0  0  0  0  0  0  0
   -0.7380   14.4790    0.1800 C   0  0  0  0  0  0  0  0  0  0  0  0
   -1.0600   14.3770    1.5030 N   0  0  0  0  0  0  0  0  0  0  0  0
   -1.8990   14.8480   -0.4600 C   0  0  0  0  0  0  0  0  0  0  0  0
   -2.3410   14.6440    1.7880 N   0  0  0  0  0  0  0  0  0  0  0  0
   -2.8840   14.9340    0.5990 C   0  0  0  0  0  0  0  0  0  0  0  0
   -2.1290   15.0960   -1.8410 C   0  0  0  0  0  0  0  0  0  0  0  0
   -1.1840   15.0410   -3.0380 C   0  0  0  0  0  0  0  0  0  0  0  0
   -4.2070   15.2750    0.3440 C   0  0  0  0  0  0  0  0  0  0  0  0
   -3.4950   15.4430   -2.0460 C   0  0  0  0  0  0  0  0  0  0  0  0
   -5.1450   15.3470    1.3700 N   0  0  0  0  0  0  0  0  0  0  0  0
   -4.4860   15.5290   -1.0130 C   0  0  0  0  0  0  0  0  0  0  0  0
   -0.6200   16.4030   -3.5130 C   0  0  2  0  0  0  0  0  0  0  0  0
   -1.6170   17.2300   -4.1990 O   0  0  0  0  0  0  0  0  0  0  0  0
    0.5010   16.2430   -4.5420 C   0  0  0  0  0  0  0  0  0  0  0  0
    0.5290   17.6080   -5.1800 C   0  0  0  0  0  0  0  0  0  0  0  0
   -0.9440   17.9650   -5.2370 C   0  0  0  0  0  0  0  0  0  0  0  0
  1  2  1  0
  2  3  1  0
  2  4  2  0
  3  5  1  0
  4  6  1  0
  5  6  2  0
  4  7  1  0
  7  8  1  0
  6  9  1  0
  7 10  2  0
  9 11  1  0
  9 12  2  0
 10 12  1  0
 13  8  1  6
 13 14  1  0
 13 15  1  0
 15 16  1  0
 14 17  1  0
 16 17  1  0
M  END
