mac-x0441-diamond-x0969_0_A
     RDKit          3D

 30 33  0  0  0  0  0  0  0  0999 V2000
    1.7150   11.1130   -3.8210 O   0  0  0  0  0  0  0  0  0  0  0  0
    1.0070   12.2070   -3.5680 C   0  0  0  0  0  0  0  0  0  0  0  0
    0.8570   12.6230   -2.3660 N   0  0  0  0  0  0  0  0  0  0  0  0
    0.4460   12.8570   -4.8180 C   0  0  0  0  0  0  0  0  0  0  0  0
    0.0970   13.8060   -2.0340 C   0  0  0  0  0  0  0  0  0  0  0  0
    0.1390   11.9470   -5.9300 N   0  0  0  0  0  0  0  0  0  0  0  0
   -1.3860   13.4600   -2.1470 C   0  0  0  0  0  0  0  0  0  0  0  0
    0.9560   11.9120   -7.0260 N   0  0  0  0  0  0  0  0  0  0  0  0
   -0.9090   11.0720   -6.0520 C   0  0  0  0  0  0  0  0  0  0  0  0
   -2.2770   14.6820   -2.3510 C   0  0  0  0  0  0  0  0  0  0  0  0
    0.3980   10.9940   -7.8620 C   0  0  0  0  0  0  0  0  0  0  0  0
   -0.7660   10.4590   -7.2790 C   0  0  0  0  0  0  0  0  0  0  0  0
   -2.0020   10.8020   -5.0780 C   0  0  0  0  0  0  0  0  0  0  0  0
    0.8920   10.5490   -9.2270 C   0  0  0  0  0  0  0  0  0  0  0  0
   -1.7020    9.4300   -7.7960 C   0  0  0  0  0  0  0  0  0  0  0  0
   -3.0590    9.8550   -5.6960 C   0  0  0  0  0  0  0  0  0  0  0  0
   -3.3960   14.7840   -1.3500 C   0  0  0  0  0  0  0  0  0  0  0  0
    1.5350    9.3520   -9.1650 F   0  0  0  0  0  0  0  0  0  0  0  0
   -0.1560   10.3370  -10.0600 F   0  0  0  0  0  0  0  0  0  0  0  0
    1.6940   11.3720   -9.9230 F   0  0  0  0  0  0  0  0  0  0  0  0
   -2.4620    8.7840   -6.6280 C   0  0  0  0  0  0  0  0  0  0  0  0
   -4.6780   14.7160   -1.7560 C   0  0  0  0  0  0  0  0  0  0  0  0
   -3.0680   14.9300    0.0750 C   0  0  0  0  0  0  0  0  0  0  0  0
   -5.7260   14.7330   -0.8080 C   0  0  0  0  0  0  0  0  0  0  0  0
   -4.0650   14.9540    0.9750 C   0  0  0  0  0  0  0  0  0  0  0  0
   -7.0290   14.6460   -0.9360 N   0  0  0  0  0  0  0  0  0  0  0  0
   -5.3850   14.8370    0.5280 N   0  0  0  0  0  0  0  0  0  0  0  0
   -6.5990   14.7890    1.1960 C   0  0  0  0  0  0  0  0  0  0  0  0
   -7.5760   14.6780    0.3230 N   0  0  0  0  0  0  0  0  0  0  0  0
   -6.7240   14.8560    2.5340 N   0  0  0  0  0  0  0  0  0  0  0  0
  1  2  1  0
  2  3  2  3
  2  4  1  0
  3  5  1  0
  4  6  1  0
  5  7  1  0
  6  8  1  0
  6  9  1  0
  7 10  1  0
  8 11  2  0
  9 12  2  0
 11 12  1  0
  9 13  1  0
 11 14  1  0
 12 15  1  0
 13 16  1  0
 10 17  1  0
 14 18  1  0
 14 19  1  0
 14 20  1  0
 15 21  1  0
 16 21  1  0
 17 22  2  0
 17 23  1  0
 22 24  1  0
 23 25  2  0
 24 26  2  0
 24 27  1  0
 25 27  1  0
 27 28  1  0
 26 29  1  0
 28 29  2  0
 28 30  1  0
M  END
