mac-x0365-mac-x0576
     RDKit          3D

 17 18  0  0  0  0  0  0  0  0999 V2000
   -0.6750   14.6370   -2.3360 O   0  0  0  0  0  0  0  0  0  0  0  0
   -1.8810   14.5270   -2.9340 C   0  0  0  0  0  0  0  0  0  0  0  0
   -1.9850   14.2770   -4.1140 O   0  0  0  0  0  0  0  0  0  0  0  0
   -2.9740   14.7680   -1.9750 C   0  0  0  0  0  0  0  0  0  0  0  0
   -4.2570   15.1810   -2.5040 C   0  0  0  0  0  0  0  0  0  0  0  0
   -2.6190   14.5670   -0.7110 C   0  0  0  0  0  0  0  0  0  0  0  0
   -5.4540   15.2370   -1.8910 C   0  0  0  0  0  0  0  0  0  0  0  0
   -3.5210   14.8200    0.3920 C   0  0  0  0  0  0  0  0  0  0  0  0
   -1.3430   14.1050   -0.3880 N   0  0  0  0  0  0  0  0  0  0  0  0
   -6.5130   15.6230   -2.6240 F   0  0  0  0  0  0  0  0  0  0  0  0
   -5.7960   14.9250   -0.5310 C   0  0  0  0  0  0  0  0  0  0  0  0
   -4.9530   14.7360    0.4680 C   0  0  0  0  0  0  0  0  0  0  0  0
   -0.8740   14.5340    0.7010 C   0  0  0  0  0  0  0  0  0  0  0  0
   -2.8890   15.2180    1.4570 C   0  0  0  0  0  0  0  0  0  0  0  0
   -7.1570   14.8280   -0.2800 O   0  0  0  0  0  0  0  0  0  0  0  0
    0.3120   14.2060    1.1990 N   0  0  0  0  0  0  0  0  0  0  0  0
   -1.5400   15.3640    1.4520 N   0  0  0  0  0  0  0  0  0  0  0  0
  1  2  1  0
  2  3  2  0
  2  4  1  0
  4  5  1  0
  4  6  2  0
  5  7  2  0
  6  8  1  0
  6  9  1  0
  7 10  1  0
  7 11  1  0
  8 12  1  0
 11 12  2  0
  9 13  2  0
  8 14  2  0
 11 15  1  0
 13 16  1  0
 13 17  1  0
 14 17  1  0
M  END
