mac-x0455-mac-x0396
     RDKit          3D

 20 21  0  0  0  0  0  0  0  0999 V2000
   -2.7650   14.4010   -2.2500 C   0  0  0  0  0  0  0  0  0  0  0  0
   -1.3990   14.2980   -3.0300 C   0  0  1  0  0  0  0  0  0  0  0  0
   -1.1620   15.5050   -3.7920 O   0  0  0  0  0  0  0  0  0  0  0  0
   -3.2320   14.6490   -0.9450 C   0  0  0  0  0  0  0  0  0  0  0  0
   -0.1250   14.2560   -2.1150 C   0  0  0  0  0  0  0  0  0  0  0  0
   -2.4220   14.8970    0.1520 N   0  0  0  0  0  0  0  0  0  0  0  0
   -1.2860   13.1150   -4.0320 C   0  0  0  0  0  0  0  0  0  0  0  0
   -4.6910   14.6670   -0.5810 C   0  0  0  0  0  0  0  0  0  0  0  0
    0.5180   15.2150   -1.7240 O   0  0  0  0  0  0  0  0  0  0  0  0
    0.2300   12.9740   -1.8040 O   0  0  0  0  0  0  0  0  0  0  0  0
   -2.2610   12.1040   -4.1260 C   0  0  0  0  0  0  0  0  0  0  0  0
   -0.1660   13.0130   -4.9060 C   0  0  0  0  0  0  0  0  0  0  0  0
   -5.6960   14.8540   -1.5340 C   0  0  0  0  0  0  0  0  0  0  0  0
   -5.1300   14.4890    0.7480 C   0  0  0  0  0  0  0  0  0  0  0  0
   -2.1280   11.0450   -5.0380 C   0  0  0  0  0  0  0  0  0  0  0  0
   -0.0400   11.9530   -5.8170 C   0  0  0  0  0  0  0  0  0  0  0  0
   -7.0280   14.8660   -1.2590 N   0  0  0  0  0  0  0  0  0  0  0  0
   -6.4970   14.5000    1.0530 C   0  0  0  0  0  0  0  0  0  0  0  0
   -1.0200   10.9690   -5.8810 C   0  0  0  0  0  0  0  0  0  0  0  0
   -7.4000   14.6890    0.0230 C   0  0  0  0  0  0  0  0  0  0  0  0
  1  2  1  0
  2  3  1  6
  1  4  2  3
  2  5  1  0
  4  6  1  0
  2  7  1  0
  4  8  1  0
  5  9  2  0
  5 10  1  0
  7 11  2  0
  7 12  1  0
  8 13  2  0
  8 14  1  0
 11 15  1  0
 12 16  2  0
 13 17  1  0
 14 18  2  0
 15 19  2  0
 16 19  1  0
 17 20  2  0
 18 20  1  0
M  END
