mac-x0380-mac-x0404
     RDKit          3D

 29 32  0  0  0  0  0  0  0  0999 V2000
   -1.8750   14.9390   -2.4560 O   0  0  0  0  0  0  0  0  0  0  0  0
   -3.1500   15.2180   -2.8000 C   0  0  0  0  0  0  0  0  0  0  0  0
   -3.4550   15.4630   -4.0510 N   0  0  0  0  0  0  0  0  0  0  0  0
   -3.9230   15.1550   -1.5690 C   0  0  0  0  0  0  0  0  0  0  0  0
   -5.2990   15.1510   -1.6100 C   0  0  0  0  0  0  0  0  0  0  0  0
   -3.2460   15.0850   -0.3400 C   0  0  0  0  0  0  0  0  0  0  0  0
   -2.1830   15.2780   -4.4700 C   0  0  0  0  0  0  0  0  0  0  0  0
   -6.0130   15.0680   -0.4230 C   0  0  0  0  0  0  0  0  0  0  0  0
   -3.9510   15.0060    0.8550 C   0  0  0  0  0  0  0  0  0  0  0  0
   -1.2550   16.2480   -4.8890 C   0  0  0  0  0  0  0  0  0  0  0  0
   -1.8730   13.9430   -4.3710 C   0  0  0  0  0  0  0  0  0  0  0  0
   -5.3440   14.9930    0.8140 C   0  0  0  0  0  0  0  0  0  0  0  0
   -7.7810   15.0520   -0.5400 S   0  0  0  0  0  0  0  0  0  0  0  0
    0.0440   15.7890   -5.1470 C   0  0  0  0  0  0  0  0  0  0  0  0
   -0.6240   13.4980   -4.6340 C   0  0  0  0  0  0  0  0  0  0  0  0
   -1.5380   17.6200   -5.0440 C   0  0  0  0  0  0  0  0  0  0  0  0
   -6.0350   14.9010    2.0330 N   0  0  0  0  0  0  0  0  0  0  0  0
   -8.0810   14.0710    0.9370 C   0  0  0  0  0  0  0  0  0  0  0  0
    0.3420   14.4030   -4.9980 C   0  0  0  0  0  0  0  0  0  0  0  0
   -0.5640   18.5250   -5.4390 C   0  0  0  0  0  0  0  0  0  0  0  0
    1.0030   16.7270   -5.5350 C   0  0  0  0  0  0  0  0  0  0  0  0
    1.6090   13.9960   -5.2150 O   0  0  0  0  0  0  0  0  0  0  0  0
   -7.3710   14.6290    2.1400 C   0  0  0  0  0  0  0  0  0  0  0  0
    0.7190   18.0790   -5.6830 C   0  0  0  0  0  0  0  0  0  0  0  0
   -7.9680   14.8460    3.1980 O   0  0  0  0  0  0  0  0  0  0  0  0
    1.9800   12.7530   -4.6410 C   0  0  0  0  0  0  0  0  0  0  0  0
    1.2440   12.2480   -3.3800 C   0  0  0  0  0  0  0  0  0  0  0  0
    1.3380   13.0480   -2.3030 O   0  0  0  0  0  0  0  0  0  0  0  0
    0.6100   11.2040   -3.2880 O   0  0  0  0  0  0  0  0  0  0  0  0
  1  2  1  0
  2  3  2  3
  2  4  1  0
  4  5  2  0
  4  6  1  0
  3  7  1  0
  5  8  1  0
  6  9  2  0
  7 10  1  0
  7 11  2  0
  8 12  2  0
  9 12  1  0
  8 13  1  0
 10 14  2  0
 11 15  1  0
 10 16  1  0
 12 17  1  0
 13 18  1  0
 14 19  1  0
 15 19  2  0
 16 20  2  0
 14 21  1  0
 19 22  1  0
 17 23  1  0
 18 23  1  0
 20 24  1  0
 21 24  2  0
 23 25  2  0
 22 26  1  0
 26 27  1  0
 27 28  1  0
 27 29  2  0
M  END
