mac-x0206-diamond-x0282_0_A
     RDKit          3D

 16 17  0  0  0  0  0  0  0  0999 V2000
   -2.7050   15.8590   -1.5850 N   0  0  0  0  0  0  0  0  0  0  0  0
   -3.9370   15.3450   -1.8310 C   0  0  0  0  0  0  0  0  0  0  0  0
   -4.4480   15.5180   -2.9230 O   0  0  0  0  0  0  0  0  0  0  0  0
   -4.5820   14.5400   -0.7310 C   0  0  2  0  0  0  0  0  0  0  0  0
   -6.1520   14.6520   -0.7940 C   0  0  2  0  0  0  0  0  0  0  0  0
   -3.8140   14.7240    0.6300 C   0  0  1  0  0  0  0  0  0  0  0  0
   -6.6000   15.9030   -1.2950 O   0  0  0  0  0  0  0  0  0  0  0  0
   -6.9170   14.2030    0.4720 C   0  0  1  0  0  0  0  0  0  0  0  0
   -4.8710   14.8980    1.7600 C   0  0  0  0  0  0  0  0  0  0  0  0
   -2.9730   13.5010    0.6430 N   0  0  0  0  0  0  0  0  0  0  0  0
   -2.8090   15.8510    0.7100 N   0  0  0  0  0  0  0  0  0  0  0  0
   -6.2140   14.6720    1.6990 C   0  0  0  0  0  0  0  0  0  0  0  0
   -1.7540   13.5900   -0.2350 C   0  0  0  0  0  0  0  0  0  0  0  0
   -1.3930   15.6720    0.7380 C   0  0  0  0  0  0  0  0  0  0  0  0
   -8.2670   14.6830    0.4790 O   0  0  0  0  0  0  0  0  0  0  0  0
   -0.8170   14.5870    0.2890 C   0  0  0  0  0  0  0  0  0  0  0  0
  1  2  1  0
  2  3  2  0
  4  2  1  6
  4  5  1  0
  4  6  1  0
  5  7  1  1
  5  8  1  0
  6  9  1  1
  6 10  1  0
  6 11  1  0
  8 12  1  0
  9 12  2  0
 10 13  1  0
 11 14  1  0
  8 15  1  6
 13 16  1  0
 14 16  2  0
M  END
