mac-x0439-diamond-x0849_0_A
     RDKit          3D

 25 28  0  0  0  0  0  0  0  0999 V2000
   -3.1380   15.6860   -5.4590 Cl  0  0  0  0  0  0  0  0  0  0  0  0
   -1.7690   16.7200   -5.3170 C   0  0  0  0  0  0  0  0  0  0  0  0
   -0.8540   16.5670   -4.1570 C   0  0  1  0  0  0  0  0  0  0  0  0
   -1.5220   17.6800   -6.2270 C   0  0  0  0  0  0  0  0  0  0  0  0
   -0.4450   15.3150   -3.4460 C   0  0  0  0  0  0  0  0  0  0  0  0
    0.5320   17.0230   -4.5190 C   0  0  0  0  0  0  0  0  0  0  0  0
   -0.3500   18.5380   -6.1260 C   0  0  0  0  0  0  0  0  0  0  0  0
    0.8950   15.2670   -3.3900 C   0  0  0  0  0  0  0  0  0  0  0  0
    1.4940   16.2920   -4.0720 N   0  0  0  0  0  0  0  0  0  0  0  0
    0.6840   18.2510   -5.3160 C   0  0  0  0  0  0  0  0  0  0  0  0
    1.7850   14.2780   -2.6920 C   0  0  0  0  0  0  0  0  0  0  0  0
    3.0560   14.6150   -2.9000 O   0  0  0  0  0  0  0  0  0  0  0  0
    1.6590   13.2720   -1.9780 N   0  0  0  0  0  0  0  0  0  0  0  0
    0.3860   12.7630   -1.6360 C   0  0  0  0  0  0  0  0  0  0  0  0
   -0.4460   13.4710   -0.5940 C   0  0  0  0  0  0  0  0  0  0  0  0
   -0.2300   13.6180    0.7810 C   0  0  0  0  0  0  0  0  0  0  0  0
   -1.5910   14.0200   -1.0750 C   0  0  0  0  0  0  0  0  0  0  0  0
   -2.4860   14.6410   -0.2370 C   0  0  0  0  0  0  0  0  0  0  0  0
   -1.0880   14.2300    1.6300 N   0  0  0  0  0  0  0  0  0  0  0  0
   -2.1970   14.7080    1.1180 C   0  0  0  0  0  0  0  0  0  0  0  0
   -3.6710   15.1870   -0.7040 C   0  0  0  0  0  0  0  0  0  0  0  0
   -4.0950   15.1260   -2.5520 Br  0  0  0  0  0  0  0  0  0  0  0  0
   -3.0210   15.2460    1.9550 N   0  0  0  0  0  0  0  0  0  0  0  0
   -4.5510   15.7660    0.1730 C   0  0  0  0  0  0  0  0  0  0  0  0
   -4.1770   15.7630    1.5000 C   0  0  0  0  0  0  0  0  0  0  0  0
  1  2  1  0
  2  3  1  0
  2  4  2  0
  3  5  1  6
  3  6  1  0
  4  7  1  0
  5  8  2  0
  6  9  2  0
  8  9  1  0
  6 10  1  0
  7 10  2  0
  8 11  1  0
 11 12  1  0
 11 13  2  3
 13 14  1  0
 14 15  1  0
 15 16  2  0
 15 17  1  0
 17 18  2  0
 16 19  1  0
 18 20  1  0
 19 20  2  0
 18 21  1  0
 21 22  1  0
 20 23  1  0
 21 24  2  0
 23 25  2  0
 24 25  1  0
M  END
