mac-x0396-mac-x0357
     RDKit          3D

 21 22  0  0  0  0  0  0  0  0999 V2000
   -3.0160   14.7890    1.4440 N   0  0  0  0  0  0  0  0  0  0  0  0
   -3.5420   14.7370    0.1660 C   0  0  0  0  0  0  0  0  0  0  0  0
   -2.8520   14.5940   -0.9150 N   0  0  0  0  0  0  0  0  0  0  0  0
   -5.0350   14.7920   -0.0030 C   0  0  0  0  0  0  0  0  0  0  0  0
   -1.3940   14.4250   -0.9680 C   0  0  0  0  0  0  0  0  0  0  0  0
   -5.6580   14.9850   -1.2310 C   0  0  0  0  0  0  0  0  0  0  0  0
   -5.8570   14.6310    1.1020 C   0  0  0  0  0  0  0  0  0  0  0  0
   -1.1210   13.8020   -2.2500 N   0  0  0  0  0  0  0  0  0  0  0  0
   -7.0110   15.0130   -1.3950 N   0  0  0  0  0  0  0  0  0  0  0  0
   -7.2400   14.6520    0.9730 C   0  0  0  0  0  0  0  0  0  0  0  0
   -0.0790   13.1380   -2.5700 C   0  0  0  0  0  0  0  0  0  0  0  0
   -7.7690   14.8450   -0.2890 C   0  0  0  0  0  0  0  0  0  0  0  0
    1.0090   12.8850   -1.8150 O   0  0  0  0  0  0  0  0  0  0  0  0
   -0.0140   12.5230   -3.9180 C   0  0  0  0  0  0  0  0  0  0  0  0
    1.1050   12.5550   -4.7750 C   0  0  0  0  0  0  0  0  0  0  0  0
   -1.1970   11.8720   -4.3110 C   0  0  0  0  0  0  0  0  0  0  0  0
    2.4000   13.2330   -4.4050 C   0  0  0  0  0  0  0  0  0  0  0  0
   -1.2980   11.2460   -5.5490 C   0  0  0  0  0  0  0  0  0  0  0  0
    0.9610   11.9140   -6.0130 C   0  0  0  0  0  0  0  0  0  0  0  0
    1.9590   11.8690   -6.9120 O   0  0  0  0  0  0  0  0  0  0  0  0
   -0.2120   11.2700   -6.4030 C   0  0  0  0  0  0  0  0  0  0  0  0
  1  2  1  0
  2  3  2  3
  2  4  1  0
  3  5  1  0
  4  6  2  0
  4  7  1  0
  5  8  1  0
  6  9  1  0
  7 10  2  0
  8 11  2  3
  9 12  2  0
 10 12  1  0
 11 13  1  0
 11 14  1  0
 14 15  2  0
 14 16  1  0
 15 17  1  0
 16 18  2  0
 15 19  1  0
 19 20  1  0
 18 21  1  0
 19 21  2  0
M  END
