mac-x0224-mac-x0373
     RDKit          3D

 19 20  0  0  0  0  0  0  0  0999 V2000
   -5.3740   14.7770    1.1980 C   0  0  0  0  0  0  0  0  0  0  0  0
   -3.6650   15.3420    1.3980 S   0  0  0  0  0  0  0  0  0  0  0  0
   -3.0340   15.0820   -0.2360 C   0  0  0  0  0  0  0  0  0  0  0  0
   -1.7390   14.6030   -0.4470 C   0  0  0  0  0  0  0  0  0  0  0  0
   -3.8640   15.3710   -1.3180 C   0  0  0  0  0  0  0  0  0  0  0  0
   -1.2310   14.3980   -1.7330 C   0  0  0  0  0  0  0  0  0  0  0  0
   -3.3960   15.1800   -2.6100 C   0  0  0  0  0  0  0  0  0  0  0  0
    0.1920   13.8710   -1.8980 C   0  0  0  0  0  0  0  0  0  0  0  0
   -2.0970   14.6990   -2.8030 C   0  0  0  0  0  0  0  0  0  0  0  0
   -1.6590   14.5080   -4.0730 O   0  0  0  0  0  0  0  0  0  0  0  0
    1.0830   14.6840   -1.1660 O   0  0  0  0  0  0  0  0  0  0  0  0
    0.5580   13.9280   -3.2540 O   0  0  0  0  0  0  0  0  0  0  0  0
    0.4060   12.5270   -1.5180 O   0  0  0  0  0  0  0  0  0  0  0  0
   -1.7430   13.1880   -4.4000 C   0  0  0  0  0  0  0  0  0  0  0  0
   -0.9920   12.5980   -5.4080 C   0  0  0  0  0  0  0  0  0  0  0  0
   -2.6540   12.4340   -3.6430 C   0  0  0  0  0  0  0  0  0  0  0  0
   -1.1540   11.2420   -5.6660 C   0  0  0  0  0  0  0  0  0  0  0  0
   -2.8120   11.0800   -3.9060 C   0  0  0  0  0  0  0  0  0  0  0  0
   -2.0600   10.4840   -4.9200 C   0  0  0  0  0  0  0  0  0  0  0  0
  1  2  1  0
  2  3  1  0
  3  4  2  0
  3  5  1  0
  4  6  1  0
  5  7  2  0
  6  8  1  0
  6  9  2  0
  7  9  1  0
  9 10  1  0
  8 11  1  0
  8 12  1  0
  8 13  1  0
 10 14  1  0
 14 15  2  0
 14 16  1  0
 15 17  1  0
 16 18  2  0
 17 19  2  0
 18 19  1  0
M  END
