mac-x0283-mac-x0282
     RDKit          3D

 15 17  0  0  0  0  0  0  0  0999 V2000
   -6.8810   14.1280    2.3470 N   0  0  0  0  0  0  0  0  0  0  0  0
   -6.6820   14.5090    1.0790 C   0  0  0  0  0  0  0  0  0  0  0  0
   -7.6930   14.9030    0.3080 N   0  0  0  0  0  0  0  0  0  0  0  0
   -5.4480   14.5620    0.3760 C   0  0  0  0  0  0  0  0  0  0  0  0
   -7.1420   15.2370   -0.9050 O   0  0  0  0  0  0  0  0  0  0  0  0
   -5.7940   15.0460   -0.8750 C   0  0  0  0  0  0  0  0  0  0  0  0
   -4.0200   14.2270    0.7230 C   0  0  0  0  0  0  0  0  0  0  0  0
   -4.9050   15.3000   -1.9300 C   0  0  0  0  0  0  0  0  0  0  0  0
   -2.9720   14.7260   -0.3650 C   0  0  2  0  0  0  0  0  0  0  0  0
   -3.5950   15.1690   -1.6990 C   0  0  0  0  0  0  0  0  0  0  0  0
   -1.8600   13.7460   -0.7680 C   0  0  0  0  0  0  0  0  0  0  0  0
   -2.2460   15.8770    0.3220 C   0  0  0  0  0  0  0  0  0  0  0  0
   -0.6370   13.7400   -0.1960 C   0  0  0  0  0  0  0  0  0  0  0  0
   -1.4050   15.3780    1.4020 N   0  0  0  0  0  0  0  0  0  0  0  0
   -0.2500   14.6610    0.9020 C   0  0  0  0  0  0  0  0  0  0  0  0
  1  2  1  0
  2  3  2  0
  2  4  1  0
  3  5  1  0
  4  6  2  0
  5  6  1  0
  4  7  1  0
  6  8  1  0
  9  7  1  1
  8 10  2  0
  9 10  1  0
  9 11  1  0
  9 12  1  0
 11 13  2  0
 12 14  1  0
 13 15  1  0
 14 15  1  0
M  END
