mac-x0346-diamond-x0104_0_A
     RDKit          3D

 20 21  0  0  0  0  0  0  0  0999 V2000
   -7.3770   14.5940    1.7830 O   0  0  0  0  0  0  0  0  0  0  0  0
   -7.7570   14.7910    0.4130 N   0  0  0  0  0  0  0  0  0  0  0  0
   -6.7460   14.9230   -0.5360 C   0  0  0  0  0  0  0  0  0  0  0  0
   -8.3530   15.0290    2.6750 C   0  0  0  0  0  0  0  0  0  0  0  0
   -8.0050   14.8660    4.0030 N   0  0  0  0  0  0  0  0  0  0  0  0
   -9.3990   15.5000    2.2630 O   0  0  0  0  0  0  0  0  0  0  0  0
   -6.9910   14.9660   -1.7410 O   0  0  0  0  0  0  0  0  0  0  0  0
   -5.3000   15.0080   -0.1090 C   0  0  0  0  0  0  0  0  0  0  0  0
   -8.9500   14.9530    5.0300 C   0  0  0  0  0  0  0  0  0  0  0  0
   -4.2350   15.0110   -1.0290 C   0  0  0  0  0  0  0  0  0  0  0  0
   -5.0020   15.0830    1.2640 C   0  0  0  0  0  0  0  0  0  0  0  0
   -8.8790   15.1160    6.4010 C   0  0  0  0  0  0  0  0  0  0  0  0
  -10.5650   14.8320    4.4910 S   0  0  0  0  0  0  0  0  0  0  0  0
   -4.5360   14.9420   -2.3590 O   0  0  0  0  0  0  0  0  0  0  0  0
   -2.9200   15.0810   -0.5610 C   0  0  0  0  0  0  0  0  0  0  0  0
   -3.6850   15.1570    1.7130 C   0  0  0  0  0  0  0  0  0  0  0  0
  -11.1920   14.9950    6.0770 C   0  0  0  0  0  0  0  0  0  0  0  0
  -10.1840   15.1400    7.0070 C   0  0  0  0  0  0  0  0  0  0  0  0
   -3.4470   15.0160   -3.2640 C   0  0  0  0  0  0  0  0  0  0  0  0
   -2.6450   15.1540    0.8040 C   0  0  0  0  0  0  0  0  0  0  0  0
  1  2  1  0
  2  3  1  0
  1  4  1  0
  4  5  1  0
  4  6  2  0
  3  7  2  0
  3  8  1  0
  5  9  1  0
  8 10  2  0
  8 11  1  0
  9 12  2  0
  9 13  1  0
 10 14  1  0
 10 15  1  0
 11 16  2  0
 13 17  1  0
 12 18  1  0
 17 18  2  0
 14 19  1  0
 15 20  2  0
 16 20  1  0
M  END
