mac-x0180-mac-x0398
     RDKit          3D

 14 14  0  0  0  0  0  0  0  0999 V2000
   -7.7290   14.4920    1.6100 C   0  0  0  0  0  0  0  0  0  0  0  0
   -6.7980   14.7010    0.4420 C   0  0  0  0  0  0  0  0  0  0  0  0
   -7.2410   14.7780   -0.6960 O   0  0  0  0  0  0  0  0  0  0  0  0
   -5.4690   14.7940    0.8230 N   0  0  0  0  0  0  0  0  0  0  0  0
   -4.4000   14.8300   -0.0940 C   0  0  0  0  0  0  0  0  0  0  0  0
   -3.0990   14.6810    0.4050 C   0  0  0  0  0  0  0  0  0  0  0  0
   -4.5820   15.0030   -1.4680 C   0  0  0  0  0  0  0  0  0  0  0  0
   -1.9990   14.7000   -0.4650 C   0  0  0  0  0  0  0  0  0  0  0  0
   -3.4930   15.0220   -2.3370 C   0  0  0  0  0  0  0  0  0  0  0  0
   -2.1950   14.8690   -1.8480 C   0  0  0  0  0  0  0  0  0  0  0  0
   -3.7870   15.2000   -3.6690 O   0  0  0  0  0  0  0  0  0  0  0  0
   -1.0580   14.8980   -2.7990 C   0  0  0  0  0  0  0  0  0  0  0  0
   -1.1720   14.8970   -4.0150 O   0  0  0  0  0  0  0  0  0  0  0  0
    0.1410   14.9420   -2.2080 O   0  0  0  0  0  0  0  0  0  0  0  0
  1  2  1  0
  2  3  2  0
  2  4  1  0
  4  5  1  0
  5  6  2  0
  5  7  1  0
  6  8  1  0
  7  9  2  0
  8 10  2  0
  9 10  1  0
  9 11  1  0
 10 12  1  0
 12 13  2  0
 12 14  1  0
M  END
