mac-x0142-mac-x0303
     RDKit          3D

 25 29  0  0  0  0  0  0  0  0999 V2000
   -7.8940   12.6630    2.4100 N   0  0  0  0  0  0  0  0  0  0  0  0
   -8.2400   14.2240    1.8680 S   0  0  0  0  0  0  0  0  0  0  0  0
   -8.2150   15.0650    3.0480 O   0  0  0  0  0  0  0  0  0  0  0  0
   -9.4340   14.1330    1.0580 O   0  0  0  0  0  0  0  0  0  0  0  0
   -6.7250   14.6660    0.7650 C   0  0  2  0  0  0  0  0  0  0  0  0
   -7.0010   15.3730   -0.4630 N   0  0  0  0  0  0  0  0  0  0  0  0
   -5.6930   13.7370    0.2400 N   0  0  0  0  0  0  0  0  0  0  0  0
   -4.6840   14.7910   -0.1270 C   0  0  1  0  0  0  0  0  0  0  0  0
   -5.6440   15.8480   -0.7310 C   0  0  0  0  0  0  0  0  0  0  0  0
   -3.8560   15.1720    1.0250 N   0  0  0  0  0  0  0  0  0  0  0  0
   -3.7260   14.6940   -1.3630 C   0  0  0  0  0  0  0  0  0  0  0  0
   -2.4940   15.0220    0.5970 C   0  0  0  0  0  0  0  0  0  0  0  0
   -2.3730   14.7880   -0.7640 C   0  0  0  0  0  0  0  0  0  0  0  0
   -1.4600   15.1170    1.4220 N   0  0  0  0  0  0  0  0  0  0  0  0
   -1.0990   14.6870   -1.3140 C   0  0  0  0  0  0  0  0  0  0  0  0
   -0.8640   14.4750   -2.6970 N   0  0  0  0  0  0  0  0  0  0  0  0
   -0.0370   14.7890   -0.4940 N   0  0  0  0  0  0  0  0  0  0  0  0
   -0.2680   14.9910    0.8200 C   0  0  0  0  0  0  0  0  0  0  0  0
   -1.9400   14.6740   -3.6610 C   0  0  0  0  0  0  0  0  0  0  0  0
    0.4460   14.8030   -3.2210 C   0  0  0  0  0  0  0  0  0  0  0  0
    0.7690   13.6230   -4.1030 C   0  0  0  0  0  0  0  0  0  0  0  0
   -1.6970   13.8690   -4.9520 C   0  0  0  0  0  0  0  0  0  0  0  0
    2.2110   13.3180   -4.4540 C   0  0  0  0  0  0  0  0  0  0  0  0
    1.5110   12.5010   -3.4120 C   0  0  0  0  0  0  0  0  0  0  0  0
   -0.3190   13.1850   -5.0840 C   0  0  0  0  0  0  0  0  0  0  0  0
  2  1  1  0
  2  3  2  0
  2  4  2  0
  5  2  1  6
  5  6  1  0
  5  7  1  0
  8  7  1  0
  6  9  1  0
  8  9  1  6
  8 10  1  0
  8 11  1  0
 10 12  1  0
 11 13  1  0
 12 13  2  0
 12 14  1  0
 13 15  1  0
 15 16  1  0
 15 17  2  0
 14 18  2  0
 17 18  1  0
 16 19  1  0
 16 20  1  0
 21 20  1  0
 19 22  1  0
 21 23  1  0
 21 24  1  0
 23 24  1  0
 21 25  1  0
 22 25  1  0
M  END
