mac-x0161-mac-x0326
     RDKit          3D

 27 30  0  0  0  0  0  0  0  0999 V2000
   -4.3440   16.2780    0.7790 N   0  0  0  0  0  0  0  0  0  0  0  0
   -3.4540   15.3680    0.0950 C   0  0  2  0  0  0  0  0  0  0  0  0
   -2.1290   15.1520    0.8830 C   0  0  1  0  0  0  0  0  0  0  0  0
   -3.2620   15.7390   -1.3070 N   0  0  0  0  0  0  0  0  0  0  0  0
   -4.5640   15.0950   -2.3270 Cl  0  0  0  0  0  0  0  0  0  0  0  0
   -1.8970   15.3820   -1.7260 C   0  0  1  0  0  0  0  0  0  0  0  0
   -1.4570   13.9550    0.3330 C   0  0  1  0  0  0  0  0  0  0  0  0
   -1.0520   16.1430    0.6230 N   0  0  0  0  0  0  0  0  0  0  0  0
   -1.4640   14.0080   -1.1840 C   0  0  1  0  0  0  0  0  0  0  0  0
   -0.1890   14.0580    1.0600 N   0  0  0  0  0  0  0  0  0  0  0  0
    0.1920   15.3730    0.6110 C   0  0  0  0  0  0  0  0  0  0  0  0
   -1.7460   15.2640   -3.1980 N   0  0  0  0  0  0  0  0  0  0  0  0
   -2.3410   12.9030   -1.8010 C   0  0  0  0  0  0  0  0  0  0  0  0
   -0.5110   14.4920   -3.4850 C   0  0  2  0  0  0  0  0  0  0  0  0
    0.2120   13.9030   -1.9210 S   0  0  0  0  0  0  0  0  0  0  0  0
    0.5360   15.3250   -4.2060 C   0  0  0  0  0  0  0  0  0  0  0  0
   -1.5270   11.8450   -2.4110 C   0  0  0  0  0  0  0  0  0  0  0  0
    1.7870   14.5280   -4.5610 C   0  0  0  0  0  0  0  0  0  0  0  0
   -1.5510   11.2370   -3.6340 C   0  0  0  0  0  0  0  0  0  0  0  0
   -0.5180   11.3270   -1.6420 O   0  0  0  0  0  0  0  0  0  0  0  0
    2.1170   13.3660   -3.6610 C   0  0  0  0  0  0  0  0  0  0  0  0
    0.1350   10.3570   -2.3750 N   0  0  0  0  0  0  0  0  0  0  0  0
   -0.5070   10.3300   -3.5620 C   0  0  0  0  0  0  0  0  0  0  0  0
   -0.1620    9.4990   -4.5650 O   0  0  0  0  0  0  0  0  0  0  0  0
    1.3270   12.3030   -3.8980 O   0  0  0  0  0  0  0  0  0  0  0  0
    2.9840   13.3140   -2.8070 O   0  0  0  0  0  0  0  0  0  0  0  0
   -1.2480    9.0350   -5.3570 C   0  0  0  0  0  0  0  0  0  0  0  0
  2  1  1  1
  2  3  1  0
  2  4  1  0
  4  5  1  0
  4  6  1  0
  3  7  1  0
  3  8  1  6
  6  9  1  0
  7  9  1  0
  7 10  1  1
  8 11  1  0
 10 11  1  0
  6 12  1  6
  9 13  1  6
 12 14  1  0
  9 15  1  0
 14 15  1  0
 14 16  1  1
 13 17  1  0
 16 18  1  0
 17 19  2  0
 17 20  1  0
 18 21  1  0
 20 22  1  0
 19 23  1  0
 22 23  2  0
 23 24  1  0
 21 25  1  0
 21 26  2  0
 24 27  1  0
M  END
