mac-x0375-diamond-x0524_0_A
     RDKit          3D

 27 29  0  0  0  0  0  0  0  0999 V2000
    1.4380   12.9460   -2.7190 O   0  0  0  0  0  0  0  0  0  0  0  0
    0.8490   12.1200   -3.6050 C   0  0  0  0  0  0  0  0  0  0  0  0
    0.6290   10.9620   -3.2890 O   0  0  0  0  0  0  0  0  0  0  0  0
    0.5210   12.7630   -4.9490 C   0  0  0  0  0  0  0  0  0  0  0  0
    0.2970   11.8090   -5.9920 O   0  0  0  0  0  0  0  0  0  0  0  0
   -0.9250   11.1700   -6.0520 C   0  0  0  0  0  0  0  0  0  0  0  0
   -1.0160   10.0170   -6.8150 C   0  0  0  0  0  0  0  0  0  0  0  0
   -2.0660   11.5950   -5.4170 C   0  0  0  0  0  0  0  0  0  0  0  0
   -2.1860    9.2780   -6.9320 C   0  0  0  0  0  0  0  0  0  0  0  0
   -3.2600   10.8650   -5.5330 C   0  0  0  0  0  0  0  0  0  0  0  0
    0.1110    9.5430   -7.5420 C   0  0  0  0  0  0  0  0  0  0  0  0
   -3.3190    9.7010   -6.2840 C   0  0  0  0  0  0  0  0  0  0  0  0
    0.0370    8.3950   -8.2450 N   0  0  0  0  0  0  0  0  0  0  0  0
    1.0730   10.2850   -7.5210 O   0  0  0  0  0  0  0  0  0  0  0  0
    0.9890    8.3500   -9.2190 C   0  0  0  0  0  0  0  0  0  0  0  0
    2.0140    7.4370   -9.2830 C   0  0  0  0  0  0  0  0  0  0  0  0
    0.8760    9.3470  -10.1810 C   0  0  0  0  0  0  0  0  0  0  0  0
    2.9430    7.5290  -10.3040 C   0  0  0  0  0  0  0  0  0  0  0  0
    1.8000    9.4350  -11.2020 C   0  0  0  0  0  0  0  0  0  0  0  0
    2.8530    8.5260  -11.2710 C   0  0  0  0  0  0  0  0  0  0  0  0
    3.8190    8.5690  -12.2610 N   0  0  0  0  0  0  0  0  0  0  0  0
    4.0880    9.5040  -13.2610 C   0  0  0  0  0  0  0  0  0  0  0  0
    3.2970   10.6580  -13.3720 C   0  0  0  0  0  0  0  0  0  0  0  0
    5.1290    9.3240  -14.1610 C   0  0  0  0  0  0  0  0  0  0  0  0
    3.5510   11.6010  -14.3640 C   0  0  0  0  0  0  0  0  0  0  0  0
    5.3870   10.2640  -15.1550 C   0  0  0  0  0  0  0  0  0  0  0  0
    4.5960   11.4020  -15.2550 C   0  0  0  0  0  0  0  0  0  0  0  0
  1  2  1  0
  2  3  2  0
  2  4  1  0
  4  5  1  0
  5  6  1  0
  6  7  2  0
  6  8  1  0
  7  9  1  0
  8 10  2  0
  7 11  1  0
  9 12  2  0
 10 12  1  0
 11 13  1  0
 11 14  2  0
 13 15  1  0
 15 16  2  0
 15 17  1  0
 16 18  1  0
 17 19  2  0
 18 20  2  0
 19 20  1  0
 20 21  1  0
 21 22  1  0
 22 23  2  0
 22 24  1  0
 23 25  1  0
 24 26  2  0
 25 27  2  0
 26 27  1  0
M  END
