mac-x0361-mac-x0337
     RDKit          3D

 18 20  0  0  0  0  0  0  0  0999 V2000
   -5.6110   15.3530    1.6120 N   0  0  0  0  0  0  0  0  0  0  0  0
   -5.7510   14.5600    0.3860 C   0  0  2  0  0  0  0  0  0  0  0  0
   -6.3890   13.4030    0.9420 O   0  0  0  0  0  0  0  0  0  0  0  0
   -4.2140   14.4070   -0.5920 S   0  0  1  0  0  0  0  0  0  0  0  0
   -6.2850   15.0520   -1.0440 C   0  0  0  0  0  0  0  0  0  0  0  0
   -4.9240   15.5010   -1.4450 N   0  0  0  0  0  0  0  0  0  0  0  0
   -2.9810   14.5280    0.1640 O   0  0  0  0  0  0  0  0  0  0  0  0
   -6.8260   13.9490   -1.9100 C   0  0  0  0  0  0  0  0  0  0  0  0
   -7.3430   16.0990   -1.2690 C   0  0  0  0  0  0  0  0  0  0  0  0
   -4.4310   12.7930   -1.1930 C   0  0  0  0  0  0  0  0  0  0  0  0
   -7.9880   14.3020   -2.4630 C   0  0  0  0  0  0  0  0  0  0  0  0
   -3.5630   12.1690   -2.0770 C   0  0  0  0  0  0  0  0  0  0  0  0
   -5.5680   12.1550   -0.7120 C   0  0  0  0  0  0  0  0  0  0  0  0
   -8.3040   15.6290   -2.0610 C   0  0  0  0  0  0  0  0  0  0  0  0
   -3.8660   10.8660   -2.4800 C   0  0  0  0  0  0  0  0  0  0  0  0
   -5.8630   10.8750   -1.1130 C   0  0  0  0  0  0  0  0  0  0  0  0
   -5.0180   10.2200   -1.9980 C   0  0  0  0  0  0  0  0  0  0  0  0
   -5.3520    8.8230   -2.4200 C   0  0  0  0  0  0  0  0  0  0  0  0
  2  1  1  1
  2  3  1  0
  2  4  1  0
  2  5  1  0
  4  6  2  0
  5  6  1  0
  4  7  2  0
  5  8  1  0
  5  9  1  0
  4 10  1  6
  8 11  2  0
 10 12  2  0
 10 13  1  0
  9 14  2  0
 11 14  1  0
 12 15  1  0
 13 16  2  0
 15 17  2  0
 16 17  1  0
 17 18  1  0
M  END
