mac-x0123-mac-x0213
     RDKit          3D

 27 31  0  0  0  0  0  0  0  0999 V2000
   -4.0350   15.3020    1.8860 N   0  0  0  0  0  0  0  0  0  0  0  0
   -4.9930   14.9550    0.9620 C   0  0  0  0  0  0  0  0  0  0  0  0
   -6.2960   14.7230    1.1890 C   0  0  0  0  0  0  0  0  0  0  0  0
   -4.5490   14.7980   -0.3490 N   0  0  0  0  0  0  0  0  0  0  0  0
   -5.3870   14.4850   -1.4170 C   0  0  0  0  0  0  0  0  0  0  0  0
   -7.1310   14.4120   -0.0050 C   0  0  0  0  0  0  0  0  0  0  0  0
   -7.2000   14.7040    2.3870 C   0  0  0  0  0  0  0  0  0  0  0  0
   -3.2770   14.8950   -0.7550 N   0  0  0  0  0  0  0  0  0  0  0  0
   -6.7370   14.3120   -1.2370 N   0  0  0  0  0  0  0  0  0  0  0  0
   -8.5530   14.2470    0.4320 C   0  0  0  0  0  0  0  0  0  0  0  0
   -8.3530   13.8400    1.8910 C   0  0  0  0  0  0  0  0  0  0  0  0
   -4.6480   14.3840   -2.5090 N   0  0  0  0  0  0  0  0  0  0  0  0
   -3.3850   14.6270   -2.0350 C   0  0  0  0  0  0  0  0  0  0  0  0
   -2.1470   14.5890   -2.8140 C   0  0  0  0  0  0  0  0  0  0  0  0
   -0.9970   13.9820   -1.9800 C   0  0  0  0  0  0  0  0  0  0  0  0
    0.0560   13.1420   -2.7230 C   0  0  0  0  0  0  0  0  0  0  0  0
   -0.2680   11.7570   -2.7320 O   0  0  0  0  0  0  0  0  0  0  0  0
    1.2300   13.2170   -1.9250 O   0  0  0  0  0  0  0  0  0  0  0  0
    0.3170   13.6860   -4.1350 C   0  0  0  0  0  0  0  0  0  0  0  0
   -1.0310   13.9990   -4.8440 C   0  0  0  0  0  0  0  0  0  0  0  0
    1.1630   14.9810   -4.2100 C   0  0  0  0  0  0  0  0  0  0  0  0
   -1.0370   15.4840   -5.0080 C   0  0  0  0  0  0  0  0  0  0  0  0
    0.1950   16.0330   -4.6690 C   0  0  0  0  0  0  0  0  0  0  0  0
   -2.0870   16.2850   -5.4480 C   0  0  0  0  0  0  0  0  0  0  0  0
    0.4140   17.3950   -4.7730 C   0  0  0  0  0  0  0  0  0  0  0  0
   -1.8670   17.6540   -5.5550 C   0  0  0  0  0  0  0  0  0  0  0  0
   -0.6310   18.2020   -5.2240 C   0  0  0  0  0  0  0  0  0  0  0  0
  1  2  1  0
  2  3  2  0
  2  4  1  0
  4  5  1  0
  3  6  1  0
  3  7  1  0
  4  8  1  0
  5  9  1  0
  6  9  2  0
  6 10  1  0
  7 11  1  0
 10 11  1  0
  5 12  2  0
  8 13  2  0
 12 13  1  0
 13 14  1  0
 14 15  1  0
 15 16  1  0
 16 17  1  0
 16 18  1  0
 16 19  1  0
 19 20  1  0
 19 21  1  0
 20 22  1  0
 21 23  1  0
 22 23  2  0
 22 24  1  0
 23 25  1  0
 24 26  2  0
 25 27  2  0
 26 27  1  0
M  END
