mac-x0193-diamond-x0465_0_A
     RDKit          3D

 21 23  0  0  0  0  0  0  0  0999 V2000
    0.3730   10.7530   -3.3710 O   0  0  0  0  0  0  0  0  0  0  0  0
    0.6020   12.0760   -3.4290 C   0  0  0  0  0  0  0  0  0  0  0  0
    0.8690   12.6650   -2.3860 O   0  0  0  0  0  0  0  0  0  0  0  0
    0.5090   12.7730   -4.7980 C   0  0  2  0  0  0  0  0  0  0  0  0
    0.1190   11.9630   -5.9650 N   0  0  0  0  0  0  0  0  0  0  0  0
    1.8180   13.5210   -4.9990 C   0  0  0  0  0  0  0  0  0  0  0  0
    1.0590   11.3920   -6.7980 C   0  0  0  0  0  0  0  0  0  0  0  0
   -1.0290   11.2000   -6.0810 C   0  0  0  0  0  0  0  0  0  0  0  0
    2.1710   11.8000   -6.8600 O   0  0  0  0  0  0  0  0  0  0  0  0
    0.4760   10.2810   -7.4870 N   0  0  0  0  0  0  0  0  0  0  0  0
   -0.8190   10.1480   -6.9720 C   0  0  0  0  0  0  0  0  0  0  0  0
   -2.2120   11.3830   -5.4610 C   0  0  0  0  0  0  0  0  0  0  0  0
    0.8790    9.9060   -8.8420 C   0  0  0  0  0  0  0  0  0  0  0  0
   -1.8020    9.2180   -7.2260 C   0  0  0  0  0  0  0  0  0  0  0  0
   -3.2280   10.4630   -5.7040 C   0  0  0  0  0  0  0  0  0  0  0  0
    1.4060    8.4820   -8.9030 C   0  0  0  0  0  0  0  0  0  0  0  0
   -0.1350   10.1240   -9.9730 C   0  0  0  0  0  0  0  0  0  0  0  0
   -3.0250    9.3830   -6.5730 C   0  0  0  0  0  0  0  0  0  0  0  0
    2.0750    8.1820  -10.2360 C   0  0  0  0  0  0  0  0  0  0  0  0
    0.4350    9.7540  -11.3600 C   0  0  0  0  0  0  0  0  0  0  0  0
    1.1210    8.3850  -11.3980 C   0  0  0  0  0  0  0  0  0  0  0  0
  1  2  1  0
  2  3  2  0
  2  4  1  0
  4  5  1  0
  4  6  1  6
  5  7  1  0
  5  8  1  0
  7  9  2  0
  7 10  1  0
  8 11  2  0
 10 11  1  0
  8 12  1  0
 10 13  1  0
 11 14  1  0
 12 15  2  0
 13 16  1  0
 13 17  1  0
 14 18  2  0
 15 18  1  0
 16 19  1  0
 17 20  1  0
 19 21  1  0
 20 21  1  0
M  END
