mac-x0132-mac-x0451
     RDKit          3D

 13 14  0  0  0  0  0  0  0  0999 V2000
   -4.6990   15.3740    1.8900 N   0  0  0  0  0  0  0  0  0  0  0  0
   -5.2110   14.2430    1.1270 C   0  0  1  0  0  0  0  0  0  0  0  0
   -6.6720   14.1600    1.3800 N   0  0  0  0  0  0  0  0  0  0  0  0
   -4.7140   14.2740   -0.3170 C   0  0  1  0  0  0  0  0  0  0  0  0
   -6.9460   14.7510    2.6980 N   0  0  0  0  0  0  0  0  0  0  0  0
   -5.9080   14.4270   -1.2730 C   0  0  1  0  0  0  0  0  0  0  0  0
   -7.5900   14.6900    0.3600 C   0  0  0  0  0  0  0  0  0  0  0  0
   -3.6060   15.3270   -0.5210 C   0  0  0  0  0  0  0  0  0  0  0  0
   -6.8960   15.3310   -0.7350 N   0  0  0  0  0  0  0  0  0  0  0  0
   -5.4990   14.8640   -2.6500 C   0  0  0  0  0  0  0  0  0  0  0  0
   -3.1510   15.4320   -1.9760 C   0  0  1  0  0  0  0  0  0  0  0  0
   -2.2010   14.4910   -2.2370 F   0  0  0  0  0  0  0  0  0  0  0  0
   -4.2650   15.3020   -2.9580 C   0  0  0  0  0  0  0  0  0  0  0  0
  2  1  1  1
  2  3  1  0
  2  4  1  0
  3  5  1  0
  4  6  1  0
  3  7  1  0
  4  8  1  1
  6  9  1  0
  7  9  1  0
  6 10  1  6
  8 11  1  0
 11 12  1  6
 10 13  2  0
 11 13  1  0
M  END
