mac-x1493-mac-x0417
     RDKit          3D

 28 31  0  0  0  0  0  0  0  0999 V2000
   -1.3200   14.7390   -1.4420 O   0  0  0  0  0  0  0  0  0  0  0  0
   -2.3390   14.8590   -2.3030 C   0  0  0  0  0  0  0  0  0  0  0  0
   -2.0750   14.9460   -3.5470 N   0  0  0  0  0  0  0  0  0  0  0  0
   -3.6050   14.8380   -1.6000 C   0  0  0  0  0  0  0  0  0  0  0  0
   -0.6880   14.8740   -3.9890 C   0  0  0  0  0  0  0  0  0  0  0  0
   -3.6660   14.9650   -0.2200 C   0  0  0  0  0  0  0  0  0  0  0  0
   -4.7750   14.6730   -2.3130 C   0  0  0  0  0  0  0  0  0  0  0  0
   -0.6520   13.6940   -4.9680 C   0  0  0  0  0  0  0  0  0  0  0  0
   -4.9140   14.9070    0.4030 C   0  0  0  0  0  0  0  0  0  0  0  0
   -5.9950   14.6170   -1.7380 N   0  0  0  0  0  0  0  0  0  0  0  0
    0.5540   12.7370   -4.8880 C   0  0  1  0  0  0  0  0  0  0  0  0
   -6.0630   14.7270   -0.4030 C   0  0  0  0  0  0  0  0  0  0  0  0
   -5.0420   15.0190    1.7890 C   0  0  0  0  0  0  0  0  0  0  0  0
    0.7810   12.1120   -3.5110 C   0  0  0  0  0  0  0  0  0  0  0  0
   -7.3040   14.6570    0.2160 C   0  0  0  0  0  0  0  0  0  0  0  0
   -6.3020   14.9460    2.3850 C   0  0  0  0  0  0  0  0  0  0  0  0
    0.4130   11.6830   -5.9450 C   0  0  0  0  0  0  0  0  0  0  0  0
    1.3600   12.9040   -2.5800 O   0  0  0  0  0  0  0  0  0  0  0  0
    0.4860   10.9550   -3.2440 O   0  0  0  0  0  0  0  0  0  0  0  0
   -7.4340   14.7600    1.6010 C   0  0  0  0  0  0  0  0  0  0  0  0
    1.3850   11.5230   -6.8450 N   0  0  0  0  0  0  0  0  0  0  0  0
   -0.6490   10.7610   -6.1650 C   0  0  0  0  0  0  0  0  0  0  0  0
    0.9700   10.4950   -7.6810 O   0  0  0  0  0  0  0  0  0  0  0  0
   -0.2410   10.0420   -7.2740 C   0  0  0  0  0  0  0  0  0  0  0  0
   -1.8870   10.4450   -5.5860 C   0  0  0  0  0  0  0  0  0  0  0  0
   -0.9770    9.0140   -7.8600 C   0  0  0  0  0  0  0  0  0  0  0  0
   -2.6570    9.4160   -6.1430 C   0  0  0  0  0  0  0  0  0  0  0  0
   -2.2100    8.7160   -7.2640 C   0  0  0  0  0  0  0  0  0  0  0  0
  1  2  1  0
  2  3  2  3
  2  4  1  0
  3  5  1  0
  4  6  2  0
  4  7  1  0
  5  8  1  0
  6  9  1  0
  7 10  2  0
 11  8  1  1
  9 12  2  0
 10 12  1  0
  9 13  1  0
 11 14  1  0
 12 15  1  0
 13 16  2  0
 11 17  1  0
 14 18  1  0
 14 19  2  0
 15 20  2  0
 16 20  1  0
 17 21  2  0
 17 22  1  0
 21 23  1  0
 22 24  2  0
 23 24  1  0
 22 25  1  0
 24 26  1  0
 25 27  2  0
 26 28  2  0
 27 28  1  0
M  END
