mac-x0576-mac-x0228
     RDKit          3D

 18 20  0  0  0  0  0  0  0  0999 V2000
    0.0880   14.0600    1.8560 N   0  0  0  0  0  0  0  0  0  0  0  0
   -0.9100   14.3610    0.9910 C   0  0  0  0  0  0  0  0  0  0  0  0
   -2.0580   14.5400    1.5860 N   0  0  0  0  0  0  0  0  0  0  0  0
   -0.6860   14.4410   -0.3160 N   0  0  0  0  0  0  0  0  0  0  0  0
   -1.7620   14.7390   -1.0920 C   0  0  0  0  0  0  0  0  0  0  0  0
   -3.0890   14.8260    0.8020 C   0  0  0  0  0  0  0  0  0  0  0  0
   -1.4190   14.7980   -2.5440 C   0  0  0  0  0  0  0  0  0  0  0  0
   -3.0420   14.9610   -0.5870 C   0  0  0  0  0  0  0  0  0  0  0  0
   -4.2650   14.9820    1.5090 N   0  0  0  0  0  0  0  0  0  0  0  0
   -0.1070   14.6190   -2.7550 O   0  0  0  0  0  0  0  0  0  0  0  0
   -2.1630   14.9710   -3.4960 O   0  0  0  0  0  0  0  0  0  0  0  0
   -5.4670   14.8520    0.7540 C   0  0  1  0  0  0  0  0  0  0  0  0
   -4.1800   15.2850   -1.3500 N   0  0  0  0  0  0  0  0  0  0  0  0
   -6.4120   15.1880    1.7360 O   0  0  0  0  0  0  0  0  0  0  0  0
   -5.3950   15.6370   -0.5690 C   0  0  1  0  0  0  0  0  0  0  0  0
   -5.9620   13.5230    0.2160 C   0  0  0  0  0  0  0  0  0  0  0  0
   -7.0370   13.9110   -0.6820 O   0  0  0  0  0  0  0  0  0  0  0  0
   -6.6540   15.1660   -1.2790 C   0  0  0  0  0  0  0  0  0  0  0  0
  1  2  1  0
  2  3  2  0
  2  4  1  0
  4  5  2  0
  3  6  1  0
  5  7  1  0
  5  8  1  0
  6  8  2  0
  6  9  1  0
  7 10  1  0
  7 11  2  0
  9 12  1  0
  8 13  1  0
 12 14  1  1
 12 15  1  0
 13 15  1  0
 12 16  1  0
 16 17  1  0
 15 18  1  6
 17 18  1  0
M  END
