mac-x0228-mac-x0439
     RDKit          3D

 26 29  0  0  0  0  0  0  0  0999 V2000
   -1.3150   14.6150   -1.4940 O   0  0  0  0  0  0  0  0  0  0  0  0
   -2.2100   14.5750   -2.5000 C   0  0  0  0  0  0  0  0  0  0  0  0
   -1.8010   14.4050   -3.6950 N   0  0  0  0  0  0  0  0  0  0  0  0
   -3.5670   14.7430   -1.9860 C   0  0  0  0  0  0  0  0  0  0  0  0
   -2.7360   14.3720   -4.8070 C   0  0  0  0  0  0  0  0  0  0  0  0
   -3.8000   14.5110   -0.6340 C   0  0  0  0  0  0  0  0  0  0  0  0
   -4.5980   15.1230   -2.8560 C   0  0  0  0  0  0  0  0  0  0  0  0
   -2.9510   15.8290   -5.2070 C   0  0  0  0  0  0  0  0  0  0  0  0
   -5.0940   14.6650   -0.1840 C   0  0  0  0  0  0  0  0  0  0  0  0
   -5.8960   15.2750   -2.3720 C   0  0  0  0  0  0  0  0  0  0  0  0
   -6.1150   15.0420   -1.0410 C   0  0  0  0  0  0  0  0  0  0  0  0
   -5.6420   14.4790    1.1670 C   0  0  0  0  0  0  0  0  0  0  0  0
   -1.6470   16.5720   -5.3610 C   0  0  0  0  0  0  0  0  0  0  0  0
   -7.3360   15.1480   -0.4280 O   0  0  0  0  0  0  0  0  0  0  0  0
   -7.1330   14.4740    0.8350 C   0  0  0  0  0  0  0  0  0  0  0  0
   -0.3270   15.8510   -5.1730 C   0  0  2  0  0  0  0  0  0  0  0  0
   -1.6120   17.8800   -5.6890 C   0  0  0  0  0  0  0  0  0  0  0  0
   -0.0170   14.7520   -4.2300 C   0  0  0  0  0  0  0  0  0  0  0  0
    0.7420   16.8000   -4.7290 C   0  0  0  0  0  0  0  0  0  0  0  0
   -0.3590   18.5940   -5.8440 C   0  0  0  0  0  0  0  0  0  0  0  0
    1.0580   15.0830   -3.5250 C   0  0  0  0  0  0  0  0  0  0  0  0
    1.5200   16.3380   -3.8190 N   0  0  0  0  0  0  0  0  0  0  0  0
    0.8110   18.1190   -5.3920 C   0  0  0  0  0  0  0  0  0  0  0  0
    1.6600   14.1420   -2.5390 C   0  0  0  0  0  0  0  0  0  0  0  0
    2.9770   14.3490   -2.3220 O   0  0  0  0  0  0  0  0  0  0  0  0
    1.0680   13.2420   -1.9660 O   0  0  0  0  0  0  0  0  0  0  0  0
  1  2  1  0
  2  3  2  3
  2  4  1  0
  3  5  1  0
  4  6  2  0
  4  7  1  0
  5  8  1  0
  6  9  1  0
  7 10  2  0
  9 11  2  0
 10 11  1  0
  9 12  1  0
  8 13  1  0
 11 14  1  0
 12 15  1  0
 14 15  1  0
 13 16  1  0
 13 17  2  0
 16 18  1  1
 16 19  1  0
 17 20  1  0
 18 21  2  0
 19 22  2  0
 21 22  1  0
 19 23  1  0
 20 23  2  0
 21 24  1  0
 24 25  1  0
 24 26  2  0
M  END
