mac-x0306-diamond-x0950_0_A
     RDKit          3D

 20 21  0  0  0  0  0  0  0  0999 V2000
    2.8560   12.9170   -3.8740 C   0  0  0  0  0  0  0  0  0  0  0  0
    1.3390   12.8170   -3.9570 C   0  0  1  0  0  0  0  0  0  0  0  0
    0.9700   12.3610   -5.2660 O   0  0  0  0  0  0  0  0  0  0  0  0
    0.7610   11.9350   -2.8230 C   0  0  0  0  0  0  0  0  0  0  0  0
    0.2390   10.8430   -2.9850 O   0  0  0  0  0  0  0  0  0  0  0  0
    0.9210   12.5230   -1.5970 O   0  0  0  0  0  0  0  0  0  0  0  0
    0.2210   13.7390   -1.2750 C   0  0  0  0  0  0  0  0  0  0  0  0
   -0.7510   13.5230   -0.1160 C   0  0  0  0  0  0  0  0  0  0  0  0
   -1.6010   14.6900    0.3530 C   0  0  0  0  0  0  0  0  0  0  0  0
   -2.9170   14.8520   -0.3870 C   0  0  0  0  0  0  0  0  0  0  0  0
   -2.9210   15.0920   -1.7260 N   0  0  0  0  0  0  0  0  0  0  0  0
   -4.0930   14.7420    0.3410 C   0  0  0  0  0  0  0  0  0  0  0  0
   -4.1300   15.2300   -2.3250 C   0  0  0  0  0  0  0  0  0  0  0  0
   -5.3230   14.8760   -0.2890 C   0  0  0  0  0  0  0  0  0  0  0  0
   -6.5720   14.7480    0.4640 C   0  0  0  0  0  0  0  0  0  0  0  0
   -5.3400   15.1320   -1.6600 C   0  0  0  0  0  0  0  0  0  0  0  0
   -6.6490   14.5460    1.8310 N   0  0  0  0  0  0  0  0  0  0  0  0
   -7.7910   14.8050   -0.0450 N   0  0  0  0  0  0  0  0  0  0  0  0
   -8.6550   14.6430    1.0040 C   0  0  0  0  0  0  0  0  0  0  0  0
   -7.9670   14.4820    2.1800 C   0  0  0  0  0  0  0  0  0  0  0  0
  2  1  1  6
  2  3  1  0
  2  4  1  0
  4  5  2  0
  4  6  1  0
  6  7  1  0
  7  8  1  0
  8  9  1  0
  9 10  1  0
 10 11  2  0
 10 12  1  0
 11 13  1  0
 12 14  2  0
 14 15  1  0
 13 16  2  0
 14 16  1  0
 15 17  1  0
 15 18  2  0
 18 19  1  0
 17 20  1  0
 19 20  2  0
M  END
