mac-x0496-mac-x0180
     RDKit          3D

 22 23  0  0  0  0  0  0  0  0999 V2000
   -9.6830   17.6680    4.6870 C   0  0  0  0  0  0  0  0  0  0  0  0
   -9.6510   16.7380    3.5330 C   0  0  0  0  0  0  0  0  0  0  0  0
  -10.3570   16.9060    2.4040 N   0  0  0  0  0  0  0  0  0  0  0  0
   -8.8780   15.6220    3.5440 N   0  0  0  0  0  0  0  0  0  0  0  0
  -10.0250   15.8160    1.6200 O   0  0  0  0  0  0  0  0  0  0  0  0
   -9.1370   15.1070    2.3610 C   0  0  0  0  0  0  0  0  0  0  0  0
   -8.5830   13.8790    1.7450 C   0  0  0  0  0  0  0  0  0  0  0  0
   -7.1300   13.9700    1.5670 N   0  0  0  0  0  0  0  0  0  0  0  0
   -6.5960   14.3100    0.2830 C   0  0  1  0  0  0  0  0  0  0  0  0
   -6.8630   13.2450   -0.5640 O   0  0  0  0  0  0  0  0  0  0  0  0
   -7.4520   15.2690   -0.2640 N   0  0  0  0  0  0  0  0  0  0  0  0
   -5.1300   14.6640    0.1780 C   0  0  0  0  0  0  0  0  0  0  0  0
   -4.3230   14.7110    1.3240 C   0  0  0  0  0  0  0  0  0  0  0  0
   -4.5240   14.9580   -1.0570 C   0  0  0  0  0  0  0  0  0  0  0  0
   -2.9730   15.0340    1.2420 C   0  0  0  0  0  0  0  0  0  0  0  0
   -3.1610   15.2870   -1.1700 C   0  0  0  0  0  0  0  0  0  0  0  0
   -2.5750   15.5950   -2.5400 C   0  0  1  0  0  0  0  0  0  0  0  0
   -2.3960   15.3200    0.0050 C   0  0  0  0  0  0  0  0  0  0  0  0
   -1.1890   15.0420   -2.8870 C   0  0  0  0  0  0  0  0  0  0  0  0
   -3.4390   15.0920   -3.5780 O   0  0  0  0  0  0  0  0  0  0  0  0
   -0.8970   14.5910   -3.9810 O   0  0  0  0  0  0  0  0  0  0  0  0
   -0.2930   15.1180   -1.8680 O   0  0  0  0  0  0  0  0  0  0  0  0
  1  2  1  0
  2  3  2  0
  2  4  1  0
  3  5  1  0
  4  6  2  0
  5  6  1  0
  6  7  1  0
  7  8  1  0
  8  9  1  0
  9 10  1  0
  9 11  1  6
  9 12  1  0
 12 13  2  0
 12 14  1  0
 13 15  1  0
 14 16  2  0
 16 17  1  0
 15 18  2  0
 16 18  1  0
 17 19  1  0
 17 20  1  6
 19 21  2  0
 19 22  1  0
M  END
