mac-x0509-diamond-x0805_0_A
     RDKit          3D

 29 32  0  0  0  0  0  0  0  0999 V2000
   -2.8860    7.7920   -6.4740 O   0  0  0  0  0  0  0  0  0  0  0  0
   -1.9870    8.5000   -6.8830 C   0  0  0  0  0  0  0  0  0  0  0  0
   -2.0870    9.6610   -7.8570 C   0  0  0  0  0  0  0  0  0  0  0  0
   -0.6540    8.4610   -6.5620 N   0  0  0  0  0  0  0  0  0  0  0  0
   -0.3450    8.8780   -5.2170 C   0  0  0  0  0  0  0  0  0  0  0  0
   -0.7860    9.4700   -8.5690 C   0  0  0  0  0  0  0  0  0  0  0  0
    0.0600    8.7220   -7.7500 C   0  0  0  0  0  0  0  0  0  0  0  0
   -0.3120   10.3830   -4.8650 C   0  0  0  0  0  0  0  0  0  0  0  0
   -0.4010    9.9110   -9.8170 C   0  0  0  0  0  0  0  0  0  0  0  0
    1.3350    8.3720   -8.1680 C   0  0  0  0  0  0  0  0  0  0  0  0
    0.0290   10.5800   -3.4510 O   0  0  0  0  0  0  0  0  0  0  0  0
    0.8780    9.5720  -10.2540 C   0  0  0  0  0  0  0  0  0  0  0  0
    1.7330    8.8090   -9.4420 C   0  0  0  0  0  0  0  0  0  0  0  0
    0.2860   11.8650   -3.0470 C   0  0  0  0  0  0  0  0  0  0  0  0
    0.5240   12.2130   -1.8680 O   0  0  0  0  0  0  0  0  0  0  0  0
    0.2200   12.8450   -4.2210 C   0  0  2  0  0  0  0  0  0  0  0  0
    1.5970   13.0520   -4.8510 C   0  0  0  0  0  0  0  0  0  0  0  0
   -0.4780   14.1880   -3.9500 C   0  0  1  0  0  0  0  0  0  0  0  0
   -1.7400   14.0560   -3.1210 C   0  0  0  0  0  0  0  0  0  0  0  0
    2.3810   13.9840   -4.1270 O   0  0  0  0  0  0  0  0  0  0  0  0
    0.4540   15.2980   -3.4390 C   0  0  0  0  0  0  0  0  0  0  0  0
   -2.8200   13.2700   -3.5510 C   0  0  0  0  0  0  0  0  0  0  0  0
   -1.8460   14.7240   -1.9030 C   0  0  0  0  0  0  0  0  0  0  0  0
    1.7950   15.2760   -4.1400 C   0  0  0  0  0  0  0  0  0  0  0  0
   -2.9870   14.6370   -1.1170 C   0  0  0  0  0  0  0  0  0  0  0  0
   -3.9740   13.1690   -2.7690 C   0  0  0  0  0  0  0  0  0  0  0  0
   -3.1360   15.2800    0.0850 O   0  0  0  0  0  0  0  0  0  0  0  0
   -4.0570   13.8550   -1.5530 C   0  0  0  0  0  0  0  0  0  0  0  0
   -4.4400   15.4520    0.6160 C   0  0  0  0  0  0  0  0  0  0  0  0
  1  2  2  0
  2  3  1  0
  2  4  1  0
  4  5  1  0
  3  6  1  0
  4  7  1  0
  6  7  2  0
  5  8  1  0
  6  9  1  0
  7 10  1  0
  8 11  1  0
  9 12  2  0
 10 13  2  0
 12 13  1  0
 11 14  1  0
 14 15  2  0
 16 14  1  1
 16 17  1  0
 16 18  1  0
 18 19  1  1
 17 20  1  0
 18 21  1  0
 19 22  2  0
 19 23  1  0
 20 24  1  0
 21 24  1  0
 23 25  2  0
 22 26  1  0
 25 27  1  0
 25 28  1  0
 26 28  2  0
 27 29  1  0
M  END
