mac-x0565-mac-x0496
     RDKit          3D

 29 32  0  0  0  0  0  0  0  0999 V2000
   -6.8980   16.1440   -0.9950 O   0  0  0  0  0  0  0  0  0  0  0  0
   -6.3010   14.6550   -0.3880 S   0  0  0  0  0  0  0  0  0  0  0  0
   -6.6940   15.1230    0.7980 O   0  0  0  0  0  0  0  0  0  0  0  0
   -7.3760   13.5340   -0.1400 N   0  0  0  0  0  0  0  0  0  0  0  0
   -5.6830   14.5250   -1.9760 C   0  0  0  0  0  0  0  0  0  0  0  0
   -4.7310   14.6140    0.1120 C   0  0  0  0  0  0  0  0  0  0  0  0
   -8.0220   13.3100    1.1070 C   0  0  0  0  0  0  0  0  0  0  0  0
   -4.3000   14.2760   -2.1160 C   0  0  0  0  0  0  0  0  0  0  0  0
   -6.3160   14.6390   -3.1860 C   0  0  0  0  0  0  0  0  0  0  0  0
   -4.2870   14.4930    1.3820 C   0  0  0  0  0  0  0  0  0  0  0  0
   -3.7070   14.7090   -0.8160 C   0  0  0  0  0  0  0  0  0  0  0  0
   -3.6150   14.1640   -3.2770 C   0  0  0  0  0  0  0  0  0  0  0  0
   -5.6400   14.5250   -4.3850 C   0  0  0  0  0  0  0  0  0  0  0  0
   -8.8240   14.5510    1.5720 C   0  0  0  0  0  0  0  0  0  0  0  0
   -2.9440   14.4630    1.7110 C   0  0  0  0  0  0  0  0  0  0  0  0
   -2.3660   14.6780   -0.5380 C   0  0  0  0  0  0  0  0  0  0  0  0
   -1.3340   14.7660   -1.5500 C   0  0  0  0  0  0  0  0  0  0  0  0
   -4.2940   14.2950   -4.4300 C   0  0  0  0  0  0  0  0  0  0  0  0
   -2.2780   13.9270   -3.5970 O   0  0  0  0  0  0  0  0  0  0  0  0
   -9.7580   15.2610    1.0820 O   0  0  0  0  0  0  0  0  0  0  0  0
   -8.5780   15.1330    2.8020 N   0  0  0  0  0  0  0  0  0  0  0  0
   -1.9850   14.5540    0.7590 C   0  0  0  0  0  0  0  0  0  0  0  0
   -0.1880   14.2750   -1.2390 O   0  0  0  0  0  0  0  0  0  0  0  0
   -1.4590   15.3100   -2.7900 O   0  0  0  0  0  0  0  0  0  0  0  0
   -3.3500   14.1470   -5.4540 O   0  0  0  0  0  0  0  0  0  0  0  0
   -2.0720   14.4340   -4.9230 C   0  0  0  0  0  0  0  0  0  0  0  0
   -9.3740   16.1910    3.0230 C   0  0  0  0  0  0  0  0  0  0  0  0
  -10.1320   16.2570    1.8980 N   0  0  0  0  0  0  0  0  0  0  0  0
   -9.4040   17.0730    4.2230 C   0  0  0  0  0  0  0  0  0  0  0  0
  1  2  1  0
  2  3  2  0
  2  4  1  0
  2  5  1  0
  2  6  1  0
  4  7  1  0
  5  8  2  0
  5  9  1  0
  6 10  2  0
  6 11  1  0
  8 12  1  0
  9 13  2  0
  7 14  1  0
 10 15  1  0
 11 16  2  0
 16 17  1  0
 12 18  2  0
 13 18  1  0
 12 19  1  0
 14 20  1  0
 14 21  2  0
 15 22  2  0
 16 22  1  0
 17 23  2  0
 17 24  1  0
 18 25  1  0
 19 26  1  0
 25 26  1  0
 21 27  1  0
 20 28  1  0
 27 28  2  0
 27 29  1  0
M  END
