mac-x0455-diamond-x0742_0_A
     RDKit          3D

 29 32  0  0  0  0  0  0  0  0999 V2000
   -2.2790   14.7900   -3.2140 C   0  0  0  0  0  0  0  0  0  0  0  0
   -0.9710   14.5350   -3.9460 C   0  0  1  0  0  0  0  0  0  0  0  0
   -0.9030   15.5720   -4.9300 O   0  0  0  0  0  0  0  0  0  0  0  0
    0.1840   14.6280   -2.9290 C   0  0  0  0  0  0  0  0  0  0  0  0
   -0.9120   13.1790   -4.6520 C   0  0  0  0  0  0  0  0  0  0  0  0
    0.6770   15.6440   -2.4830 O   0  0  0  0  0  0  0  0  0  0  0  0
    0.5710   13.3880   -2.5950 O   0  0  0  0  0  0  0  0  0  0  0  0
   -1.9450   12.2330   -4.4790 C   0  0  0  0  0  0  0  0  0  0  0  0
    0.1590   12.8290   -5.4900 C   0  0  0  0  0  0  0  0  0  0  0  0
    0.7980   13.2400   -1.2170 C   0  0  0  0  0  0  0  0  0  0  0  0
   -1.9080   10.9920   -5.1190 C   0  0  0  0  0  0  0  0  0  0  0  0
    0.1960   11.5890   -6.1310 C   0  0  0  0  0  0  0  0  0  0  0  0
   -0.8370   10.6710   -5.9460 C   0  0  0  0  0  0  0  0  0  0  0  0
   -0.3760   13.7120   -0.4190 C   0  0  0  0  0  0  0  0  0  0  0  0
   -0.3550   13.8980    0.9720 C   0  0  0  0  0  0  0  0  0  0  0  0
   -1.5650   13.9750   -1.0680 C   0  0  0  0  0  0  0  0  0  0  0  0
   -1.4020   14.3120    1.7100 N   0  0  0  0  0  0  0  0  0  0  0  0
   -2.6590   14.4040   -0.3470 C   0  0  0  0  0  0  0  0  0  0  0  0
   -4.0150   14.7390   -0.8870 C   0  0  2  0  0  0  0  0  0  0  0  0
   -2.5300   14.5520    1.0150 C   0  0  0  0  0  0  0  0  0  0  0  0
   -5.1690   14.0200   -0.1680 C   0  0  1  0  0  0  0  0  0  0  0  0
   -4.4560   14.7460   -2.3520 C   0  0  0  0  0  0  0  0  0  0  0  0
   -3.7500   15.0050    1.7390 C   0  0  0  0  0  0  0  0  0  0  0  0
   -5.5070   12.5340   -0.4660 C   0  0  0  0  0  0  0  0  0  0  0  0
   -4.9870   14.1620    1.3650 C   0  0  0  0  0  0  0  0  0  0  0  0
   -6.3140   14.8360   -0.7700 C   0  0  0  0  0  0  0  0  0  0  0  0
   -5.9890   14.8220   -2.2650 C   0  0  0  0  0  0  0  0  0  0  0  0
   -5.0140   11.9560   -1.4490 O   0  0  0  0  0  0  0  0  0  0  0  0
   -6.4510   11.7840    0.4280 C   0  0  0  0  0  0  0  0  0  0  0  0
  2  1  1  1
  2  3  1  0
  2  4  1  0
  2  5  1  0
  4  6  2  0
  4  7  1  0
  5  8  2  0
  5  9  1  0
  7 10  1  0
  8 11  1  0
  9 12  2  0
 11 13  2  0
 12 13  1  0
 10 14  1  0
 14 15  2  0
 14 16  1  0
 15 17  1  0
 16 18  2  0
 18 19  1  0
 17 20  2  0
 18 20  1  0
 19 21  1  0
 19 22  1  6
 20 23  1  0
 21 24  1  1
 21 25  1  0
 23 25  1  0
 21 26  1  0
 22 27  1  0
 26 27  1  0
 24 28  2  0
 24 29  1  0
M  END
