mac-x0361-diamond-x0689_0_A
     RDKit          3D

 17 18  0  0  0  0  0  0  0  0999 V2000
   -5.1820   14.8050    1.5940 N   0  0  0  0  0  0  0  0  0  0  0  0
   -5.9080   14.7060    0.4080 C   0  0  0  0  0  0  0  0  0  0  0  0
   -7.1420   14.6500    0.3360 O   0  0  0  0  0  0  0  0  0  0  0  0
   -3.8920   15.4760    1.7020 N   0  0  0  0  0  0  0  0  0  0  0  0
   -5.0570   14.6800   -0.7870 C   0  0  0  0  0  0  0  0  0  0  0  0
   -2.6470   15.0080    1.1210 C   0  0  0  0  0  0  0  0  0  0  0  0
   -3.8810   13.9660   -0.6130 C   0  0  0  0  0  0  0  0  0  0  0  0
   -5.3310   15.2970   -2.0100 C   0  0  0  0  0  0  0  0  0  0  0  0
   -2.4400   15.0280   -0.2080 N   0  0  0  0  0  0  0  0  0  0  0  0
   -1.6920   14.5790    1.9680 N   0  0  0  0  0  0  0  0  0  0  0  0
   -2.9540   13.8660   -1.6390 C   0  0  0  0  0  0  0  0  0  0  0  0
   -4.3820   15.1820   -3.0350 C   0  0  0  0  0  0  0  0  0  0  0  0
   -1.2300   14.6220   -0.6760 C   0  0  0  0  0  0  0  0  0  0  0  0
   -0.5040   14.1830    1.4580 C   0  0  0  0  0  0  0  0  0  0  0  0
   -3.2140   14.4860   -2.8410 C   0  0  0  0  0  0  0  0  0  0  0  0
   -0.2140   14.1880    0.1240 C   0  0  0  0  0  0  0  0  0  0  0  0
   -2.3380   14.4380   -3.8830 O   0  0  0  0  0  0  0  0  0  0  0  0
  1  2  1  0
  2  3  2  0
  1  4  1  0
  2  5  1  0
  4  6  1  0
  5  7  2  0
  5  8  1  0
  6  9  2  0
  6 10  1  0
  7 11  1  0
  8 12  2  0
  9 13  1  0
 10 14  2  0
 11 15  2  0
 12 15  1  0
 13 16  2  0
 14 16  1  0
 15 17  1  0
M  END
