mac-x0337-diamond-x0950_0_A
     RDKit          3D

 20 20  0  0  0  0  0  0  0  0999 V2000
   -5.8520    9.2570   -2.1320 C   0  0  0  0  0  0  0  0  0  0  0  0
   -5.2950   10.6100   -1.7990 C   0  0  0  0  0  0  0  0  0  0  0  0
   -5.9800   11.4620   -0.9210 C   0  0  0  0  0  0  0  0  0  0  0  0
   -4.0830   11.0300   -2.3600 C   0  0  0  0  0  0  0  0  0  0  0  0
   -3.5600   12.2870   -2.0540 C   0  0  0  0  0  0  0  0  0  0  0  0
   -5.4610   12.7210   -0.6120 C   0  0  0  0  0  0  0  0  0  0  0  0
   -4.2540   13.1270   -1.1820 C   0  0  0  0  0  0  0  0  0  0  0  0
   -3.5980   14.7190   -0.7970 S   0  0  2  0  0  0  0  0  0  0  0  0
   -3.4020   15.4620   -2.0210 O   0  0  0  0  0  0  0  0  0  0  0  0
   -2.5950   14.5650    0.3570 N   0  0  0  0  0  0  0  0  0  0  0  0
   -4.7990   15.6070   -0.0420 N   0  0  0  0  0  0  0  0  0  0  0  0
   -1.1650   14.8620    0.1240 C   0  0  0  0  0  0  0  0  0  0  0  0
   -0.2920   13.6340   -0.0140 C   0  0  0  0  0  0  0  0  0  0  0  0
    0.6390   13.8100   -1.2180 C   0  0  0  0  0  0  0  0  0  0  0  0
    0.0610   13.1720   -2.3660 O   0  0  0  0  0  0  0  0  0  0  0  0
    0.7540   12.2250   -3.0500 C   0  0  0  0  0  0  0  0  0  0  0  0
    1.4980   12.8430   -4.2380 C   0  0  1  0  0  0  0  0  0  0  0  0
    0.7670   11.0320   -2.7760 O   0  0  0  0  0  0  0  0  0  0  0  0
    3.0030   12.7900   -4.0590 C   0  0  0  0  0  0  0  0  0  0  0  0
    1.1500   12.1810   -5.4560 O   0  0  0  0  0  0  0  0  0  0  0  0
  1  2  1  0
  2  3  2  0
  2  4  1  0
  4  5  2  0
  3  6  1  0
  5  7  1  0
  6  7  2  0
  7  8  1  0
  8  9  2  0
  8 10  2  0
  8 11  1  1
 10 12  1  0
 12 13  1  0
 13 14  1  0
 14 15  1  0
 15 16  1  0
 16 17  1  0
 16 18  2  0
 17 19  1  1
 17 20  1  0
M  END
