mac-x0417-mac-x0328
     RDKit          3D

 24 26  0  0  0  0  0  0  0  0999 V2000
    1.4010   12.9490   -2.5870 O   0  0  0  0  0  0  0  0  0  0  0  0
    0.6720   12.0730   -3.3120 C   0  0  0  0  0  0  0  0  0  0  0  0
    0.6390   10.9090   -2.9470 O   0  0  0  0  0  0  0  0  0  0  0  0
   -0.0250   12.6840   -4.5130 C   0  0  2  0  0  0  0  0  0  0  0  0
   -1.4970   13.0480   -4.1740 C   0  0  0  0  0  0  0  0  0  0  0  0
    0.0770   11.7540   -5.6930 C   0  0  0  0  0  0  0  0  0  0  0  0
   -1.7180   14.4330   -3.8050 O   0  0  0  0  0  0  0  0  0  0  0  0
    1.1100   11.7700   -6.5520 N   0  0  0  0  0  0  0  0  0  0  0  0
   -0.8640   10.7570   -6.0500 C   0  0  0  0  0  0  0  0  0  0  0  0
   -1.7860   14.6920   -2.4660 C   0  0  0  0  0  0  0  0  0  0  0  0
    0.8420   10.7760   -7.4920 O   0  0  0  0  0  0  0  0  0  0  0  0
   -0.3360   10.1730   -7.1870 C   0  0  0  0  0  0  0  0  0  0  0  0
   -2.0840   10.2860   -5.5480 C   0  0  0  0  0  0  0  0  0  0  0  0
   -0.8140   14.7840   -1.7370 O   0  0  0  0  0  0  0  0  0  0  0  0
   -0.9460    9.1320   -7.8820 C   0  0  0  0  0  0  0  0  0  0  0  0
   -2.7270    9.2400   -6.2180 C   0  0  0  0  0  0  0  0  0  0  0  0
   -3.1820   14.8600   -1.9520 C   0  0  0  0  0  0  0  0  0  0  0  0
   -2.1650    8.6740   -7.3670 C   0  0  0  0  0  0  0  0  0  0  0  0
   -3.4540   14.8710   -0.5690 C   0  0  0  0  0  0  0  0  0  0  0  0
   -4.2470   15.0100   -2.8510 C   0  0  0  0  0  0  0  0  0  0  0  0
   -4.7600   15.0250   -0.0980 C   0  0  0  0  0  0  0  0  0  0  0  0
   -5.5530   15.1650   -2.3750 C   0  0  0  0  0  0  0  0  0  0  0  0
   -5.8000   15.1700   -1.0090 C   0  0  0  0  0  0  0  0  0  0  0  0
   -7.0930   15.3200   -0.6070 O   0  0  0  0  0  0  0  0  0  0  0  0
  1  2  1  0
  2  3  2  0
  2  4  1  0
  4  5  1  1
  4  6  1  0
  5  7  1  0
  6  8  2  0
  6  9  1  0
  7 10  1  0
  8 11  1  0
  9 12  2  0
 11 12  1  0
  9 13  1  0
 10 14  2  0
 12 15  1  0
 13 16  2  0
 10 17  1  0
 15 18  2  0
 16 18  1  0
 17 19  2  0
 17 20  1  0
 19 21  1  0
 20 22  2  0
 21 23  2  0
 22 23  1  0
 23 24  1  0
M  END
