mac-x0357-mac-x0347
     RDKit          3D

 24 26  0  0  0  0  0  0  0  0999 V2000
    2.3810   13.1710   -4.8200 C   0  0  0  0  0  0  0  0  0  0  0  0
    1.0910   12.4670   -4.9700 C   0  0  0  0  0  0  0  0  0  0  0  0
    0.8740   11.6950   -6.1130 C   0  0  0  0  0  0  0  0  0  0  0  0
    0.1160   12.5470   -4.0530 C   0  0  0  0  0  0  0  0  0  0  0  0
    1.8490   11.6340   -7.0530 O   0  0  0  0  0  0  0  0  0  0  0  0
    0.1820   13.4560   -2.7000 S   0  0  0  0  0  0  0  0  0  0  0  0
   -1.0480   11.8140   -4.3180 C   0  0  0  0  0  0  0  0  0  0  0  0
   -0.2770   10.9880   -6.3530 C   0  0  0  0  0  0  0  0  0  0  0  0
    1.3080   13.4940   -1.5160 O   0  0  0  0  0  0  0  0  0  0  0  0
   -0.3610   12.3190   -1.7130 O   0  0  0  0  0  0  0  0  0  0  0  0
    0.8430   14.5520   -3.2580 O   0  0  0  0  0  0  0  0  0  0  0  0
   -1.2520   11.0520   -5.4240 C   0  0  0  0  0  0  0  0  0  0  0  0
   -1.3130   14.2150   -2.5930 C   0  0  0  0  0  0  0  0  0  0  0  0
   -2.1090   14.2010   -1.5420 C   0  0  0  0  0  0  0  0  0  0  0  0
   -1.7150   14.8680   -3.7350 C   0  0  0  0  0  0  0  0  0  0  0  0
   -3.3430   14.8170   -1.5730 C   0  0  0  0  0  0  0  0  0  0  0  0
   -2.9030   15.4840   -3.8060 N   0  0  0  0  0  0  0  0  0  0  0  0
   -3.7080   15.4520   -2.7340 C   0  0  0  0  0  0  0  0  0  0  0  0
   -4.2040   14.7790   -0.4380 C   0  0  0  0  0  0  0  0  0  0  0  0
   -3.8410   15.3820    0.7360 C   0  0  0  0  0  0  0  0  0  0  0  0
   -5.4110   14.1340   -0.4880 C   0  0  0  0  0  0  0  0  0  0  0  0
   -4.6660   15.3420    1.8380 C   0  0  0  0  0  0  0  0  0  0  0  0
   -6.2480   14.0860    0.6130 C   0  0  0  0  0  0  0  0  0  0  0  0
   -5.8630   14.6970    1.7800 C   0  0  0  0  0  0  0  0  0  0  0  0
  1  2  1  0
  2  3  2  0
  2  4  1  0
  3  5  1  0
  4  6  1  0
  4  7  2  0
  3  8  1  0
  6  9  2  0
  6 10  1  0
  6 11  1  0
  7 12  1  0
  8 12  2  0
  6 13  1  0
 13 14  2  0
 13 15  1  0
 14 16  1  0
 15 17  2  0
 16 18  2  0
 17 18  1  0
 16 19  1  0
 19 20  2  0
 19 21  1  0
 20 22  1  0
 21 23  2  0
 22 24  2  0
 23 24  1  0
M  END
