mac-x0361-mac-x0568
     RDKit          3D

 17 18  0  0  0  0  0  0  0  0999 V2000
   -8.0430   15.0970    0.1680 N   0  0  0  0  0  0  0  0  0  0  0  0
   -7.7470   15.7470   -1.1130 C   0  0  0  0  0  0  0  0  0  0  0  0
   -6.3270   15.4920   -1.5240 C   0  0  0  0  0  0  0  0  0  0  0  0
   -5.3130   15.7580   -0.6270 C   0  0  0  0  0  0  0  0  0  0  0  0
   -6.0040   14.9860   -2.7950 C   0  0  0  0  0  0  0  0  0  0  0  0
   -4.0260   15.5250   -0.9600 C   0  0  0  0  0  0  0  0  0  0  0  0
   -4.6650   14.7450   -3.1330 C   0  0  0  0  0  0  0  0  0  0  0  0
   -3.6930   15.0170   -2.1840 C   0  0  0  0  0  0  0  0  0  0  0  0
   -2.3580   14.8220   -2.2560 N   0  0  0  0  0  0  0  0  0  0  0  0
   -2.1650   14.3180   -1.0670 C   0  0  0  0  0  0  0  0  0  0  0  0
   -0.9770   13.9260   -0.5110 N   0  0  0  0  0  0  0  0  0  0  0  0
   -3.4680   14.1820   -0.2660 C   0  0  0  0  0  0  0  0  0  0  0  0
   -4.5480   13.4430   -0.7840 C   0  0  0  0  0  0  0  0  0  0  0  0
   -3.6710   14.7740    0.9950 C   0  0  0  0  0  0  0  0  0  0  0  0
   -5.7490   13.2730   -0.1600 N   0  0  0  0  0  0  0  0  0  0  0  0
   -4.9000   14.6100    1.6480 C   0  0  0  0  0  0  0  0  0  0  0  0
   -5.8940   13.8620    1.0440 C   0  0  0  0  0  0  0  0  0  0  0  0
  1  2  1  0
  2  3  1  0
  3  4  2  0
  3  5  1  0
  4  6  1  0
  5  7  2  0
  6  8  2  0
  7  8  1  0
  8  9  1  0
  9 10  2  3
 10 11  1  0
 10 12  1  0
 12 13  2  0
 12 14  1  0
 13 15  1  0
 14 16  2  0
 15 17  2  0
 16 17  1  0
M  END
