mac-x0441-diamond-x0967_0_A
     RDKit          3D

 30 33  0  0  0  0  0  0  0  0999 V2000
    0.3660   10.4790   -3.2560 O   0  0  0  0  0  0  0  0  0  0  0  0
    0.3920   11.8110   -3.1040 C   0  0  0  0  0  0  0  0  0  0  0  0
    0.3540   12.1470   -1.8500 N   0  0  0  0  0  0  0  0  0  0  0  0
    0.4480   12.5630   -4.4220 C   0  0  0  0  0  0  0  0  0  0  0  0
    0.3600   13.5080   -1.3610 C   0  0  0  0  0  0  0  0  0  0  0  0
    0.1990   11.6940   -5.5820 N   0  0  0  0  0  0  0  0  0  0  0  0
   -0.6500   13.5410   -0.2120 C   0  0  0  0  0  0  0  0  0  0  0  0
    1.0440   11.7100   -6.6530 N   0  0  0  0  0  0  0  0  0  0  0  0
   -0.8250   10.8010   -5.7680 C   0  0  0  0  0  0  0  0  0  0  0  0
   -1.3360   14.8810   -0.1680 C   0  0  0  0  0  0  0  0  0  0  0  0
    0.5260   10.7930   -7.5140 C   0  0  0  0  0  0  0  0  0  0  0  0
   -0.6290   10.2130   -6.9950 C   0  0  0  0  0  0  0  0  0  0  0  0
   -1.9470   10.4880   -4.8520 C   0  0  0  0  0  0  0  0  0  0  0  0
    1.0920   10.4220   -8.8480 C   0  0  0  0  0  0  0  0  0  0  0  0
   -1.5130    9.1710   -7.5780 C   0  0  0  0  0  0  0  0  0  0  0  0
   -3.0480    9.7300   -5.6280 C   0  0  0  0  0  0  0  0  0  0  0  0
   -2.8480   14.8370   -0.2910 C   0  0  0  0  0  0  0  0  0  0  0  0
    1.6180    9.1720   -8.9020 F   0  0  0  0  0  0  0  0  0  0  0  0
    0.1840   10.5200   -9.8570 F   0  0  0  0  0  0  0  0  0  0  0  0
    2.0750   11.2380   -9.1700 F   0  0  0  0  0  0  0  0  0  0  0  0
   -2.4690    8.6120   -6.5130 C   0  0  0  0  0  0  0  0  0  0  0  0
   -3.4940   14.8330   -1.5260 C   0  0  0  0  0  0  0  0  0  0  0  0
   -3.6790   14.8000    0.8280 C   0  0  0  0  0  0  0  0  0  0  0  0
   -5.0720   14.7520    0.6670 C   0  0  0  0  0  0  0  0  0  0  0  0
   -4.8390   14.7890   -1.6980 N   0  0  0  0  0  0  0  0  0  0  0  0
   -5.6300   14.7450   -0.6240 C   0  0  0  0  0  0  0  0  0  0  0  0
   -5.9330   14.7080    1.7680 C   0  0  0  0  0  0  0  0  0  0  0  0
   -6.9550   14.6900   -0.7990 N   0  0  0  0  0  0  0  0  0  0  0  0
   -7.3030   14.6480    1.5820 C   0  0  0  0  0  0  0  0  0  0  0  0
   -7.7650   14.6420    0.2850 C   0  0  0  0  0  0  0  0  0  0  0  0
  1  2  1  0
  2  3  2  3
  2  4  1  0
  3  5  1  0
  4  6  1  0
  5  7  1  0
  6  8  1  0
  6  9  1  0
  7 10  1  0
  8 11  2  0
  9 12  2  0
 11 12  1  0
  9 13  1  0
 11 14  1  0
 12 15  1  0
 13 16  1  0
 10 17  1  0
 14 18  1  0
 14 19  1  0
 14 20  1  0
 15 21  1  0
 16 21  1  0
 17 22  2  0
 17 23  1  0
 23 24  2  0
 22 25  1  0
 24 26  1  0
 25 26  2  0
 24 27  1  0
 26 28  1  0
 27 29  2  0
 28 30  2  0
 29 30  1  0
M  END
