mac-x0226-diamond-x0631_0_A
     RDKit          3D

 25 27  0  0  0  0  0  0  0  0999 V2000
    0.7020   13.1050   -2.0630 O   0  0  0  0  0  0  0  0  0  0  0  0
    0.5490   11.8920   -2.6420 C   0  0  0  0  0  0  0  0  0  0  0  0
    0.3100   10.8740   -1.9860 O   0  0  0  0  0  0  0  0  0  0  0  0
    0.7280   11.8450   -4.0700 C   0  0  0  0  0  0  0  0  0  0  0  0
    1.5550   12.6750   -4.8620 C   0  0  0  0  0  0  0  0  0  0  0  0
    0.1630   10.9870   -4.9740 C   0  0  0  0  0  0  0  0  0  0  0  0
    1.5240   12.3550   -6.1530 N   0  0  0  0  0  0  0  0  0  0  0  0
    0.6700   11.2980   -6.2230 N   0  0  0  0  0  0  0  0  0  0  0  0
    0.3860   10.6370   -7.4460 C   0  0  0  0  0  0  0  0  0  0  0  0
   -0.6130    9.6840   -7.5480 C   0  0  0  0  0  0  0  0  0  0  0  0
    1.1470   10.9500   -8.5750 C   0  0  0  0  0  0  0  0  0  0  0  0
   -1.4350    9.2480   -6.3790 C   0  0  0  0  0  0  0  0  0  0  0  0
   -0.8490    9.0980   -8.8000 C   0  0  0  0  0  0  0  0  0  0  0  0
    0.9220   10.3740   -9.8160 C   0  0  0  0  0  0  0  0  0  0  0  0
   -2.4030    8.1250   -6.6930 C   0  0  0  0  0  0  0  0  0  0  0  0
    1.6530   10.6760  -10.9480 N   0  0  0  0  0  0  0  0  0  0  0  0
   -0.0970    9.4430   -9.9170 C   0  0  0  0  0  0  0  0  0  0  0  0
   -3.3660    8.5620   -7.7770 C   0  0  0  0  0  0  0  0  0  0  0  0
    2.4440    9.6520  -11.5910 C   0  0  1  0  0  0  0  0  0  0  0  0
    1.6740    8.4650  -11.5540 O   0  0  0  0  0  0  0  0  0  0  0  0
    2.7030   10.0270  -13.0590 C   0  0  2  0  0  0  0  0  0  0  0  0
    4.0200    9.5650  -13.4120 O   0  0  0  0  0  0  0  0  0  0  0  0
    2.7100   11.5110  -13.3500 C   0  0  0  0  0  0  0  0  0  0  0  0
    3.6140   11.6250  -14.5560 C   0  0  0  0  0  0  0  0  0  0  0  0
    4.4480   10.3550  -14.5260 C   0  0  0  0  0  0  0  0  0  0  0  0
  1  2  1  0
  2  3  2  0
  2  4  1  0
  4  5  1  0
  4  6  2  0
  5  7  2  0
  6  8  1  0
  7  8  1  0
  8  9  1  0
  9 10  2  0
  9 11  1  0
 10 12  1  0
 10 13  1  0
 11 14  2  0
 12 15  1  0
 14 16  1  0
 13 17  2  0
 14 17  1  0
 15 18  1  0
 16 19  1  0
 19 20  1  6
 19 21  1  0
 21 22  1  0
 21 23  1  1
 23 24  1  0
 22 25  1  0
 24 25  1  0
M  END
