mac-x0381-mac-x0139
     RDKit          3D

 32 35  0  0  0  0  0  0  0  0999 V2000
   -8.0540   14.2020    4.9620 N   0  0  0  0  0  0  0  0  0  0  0  0
   -8.2750   14.1480    3.6230 C   0  0  0  0  0  0  0  0  0  0  0  0
   -7.5790   13.5440    2.7240 N   0  0  0  0  0  0  0  0  0  0  0  0
   -9.4920   14.7400    2.9890 C   0  0  0  0  0  0  0  0  0  0  0  0
   -6.3890   12.7100    2.8640 C   0  0  0  0  0  0  0  0  0  0  0  0
   -9.4020   15.7610    2.0550 C   0  0  0  0  0  0  0  0  0  0  0  0
  -10.7300   14.2160    3.3270 C   0  0  0  0  0  0  0  0  0  0  0  0
   -5.1430   13.2390    2.1200 C   0  0  0  0  0  0  0  0  0  0  0  0
  -10.5390   16.2630    1.4110 C   0  0  0  0  0  0  0  0  0  0  0  0
  -11.8760   14.6950    2.6970 C   0  0  0  0  0  0  0  0  0  0  0  0
   -4.9690   14.7590    1.9210 C   0  0  0  0  0  0  0  0  0  0  0  0
  -11.7910   15.7090    1.7240 C   0  0  0  0  0  0  0  0  0  0  0  0
  -10.4650   17.2890    0.4560 C   0  0  0  0  0  0  0  0  0  0  0  0
  -12.9190   16.1890    1.0410 C   0  0  0  0  0  0  0  0  0  0  0  0
  -11.6050   17.7600   -0.1880 C   0  0  0  0  0  0  0  0  0  0  0  0
   -4.1340   15.0240    0.7880 N   0  0  0  0  0  0  0  0  0  0  0  0
  -12.8350   17.2050    0.1020 C   0  0  0  0  0  0  0  0  0  0  0  0
   -2.7430   15.0100    0.6580 C   0  0  0  0  0  0  0  0  0  0  0  0
   -4.7160   15.3350   -0.3960 C   0  0  0  0  0  0  0  0  0  0  0  0
   -2.4780   15.3050   -0.6790 C   0  0  0  0  0  0  0  0  0  0  0  0
   -1.8070   14.7550    1.6120 N   0  0  0  0  0  0  0  0  0  0  0  0
   -3.7320   15.5090   -1.3080 C   0  0  0  0  0  0  0  0  0  0  0  0
   -1.1410   15.3350   -1.1150 C   0  0  0  0  0  0  0  0  0  0  0  0
   -0.5600   14.8170    1.0970 C   0  0  0  0  0  0  0  0  0  0  0  0
   -0.7500   15.5920   -2.4360 N   0  0  0  0  0  0  0  0  0  0  0  0
   -0.1870   15.0840   -0.1740 N   0  0  0  0  0  0  0  0  0  0  0  0
   -1.7940   15.5950   -3.4490 C   0  0  0  0  0  0  0  0  0  0  0  0
    0.5240   14.9690   -2.8440 C   0  0  0  0  0  0  0  0  0  0  0  0
    0.2670   13.7090   -3.6750 C   0  0  0  0  0  0  0  0  0  0  0  0
    0.9160   12.5230   -3.0130 C   0  0  0  0  0  0  0  0  0  0  0  0
    1.7450   12.6130   -2.1270 O   0  0  0  0  0  0  0  0  0  0  0  0
    0.5000   11.3270   -3.4820 O   0  0  0  0  0  0  0  0  0  0  0  0
  1  2  1  0
  2  3  2  3
  2  4  1  0
  3  5  1  0
  4  6  2  0
  4  7  1  0
  5  8  1  0
  6  9  1  0
  7 10  2  0
  8 11  1  0
  9 12  2  0
 10 12  1  0
  9 13  1  0
 12 14  1  0
 13 15  2  0
 11 16  1  0
 14 17  2  0
 15 17  1  0
 16 18  1  0
 16 19  1  0
 18 20  2  0
 18 21  1  0
 19 22  2  0
 20 22  1  0
 20 23  1  0
 21 24  2  0
 23 25  1  0
 23 26  2  0
 24 26  1  0
 25 27  1  0
 25 28  1  0
 28 29  1  0
 29 30  1  0
 30 31  2  0
 30 32  1  0
M  END
