mac-x0131-mac-x0439
     RDKit          3D

 30 34  0  0  0  0  0  0  0  0999 V2000
   -2.8530   15.0520   -4.0860 C   0  0  0  0  0  0  0  0  0  0  0  0
   -2.7520   14.9550   -2.5760 C   0  0  0  0  0  0  0  0  0  0  0  0
   -3.6370   15.1920   -1.5020 C   0  0  0  0  0  0  0  0  0  0  0  0
   -1.6770   15.8040   -4.7320 C   0  0  0  0  0  0  0  0  0  0  0  0
   -1.5780   14.5600   -2.0060 N   0  0  0  0  0  0  0  0  0  0  0  0
   -0.3560   15.1200   -5.0660 C   0  0  2  0  0  0  0  0  0  0  0  0
   -1.7600   17.1250   -5.0370 C   0  0  0  0  0  0  0  0  0  0  0  0
   -5.0610   15.6260   -1.5430 C   0  0  0  0  0  0  0  0  0  0  0  0
   -0.3700   14.1890   -2.6670 C   0  0  0  0  0  0  0  0  0  0  0  0
   -2.8920   14.9360   -0.2900 C   0  0  0  0  0  0  0  0  0  0  0  0
   -1.6320   14.5430   -0.6730 C   0  0  0  0  0  0  0  0  0  0  0  0
    0.3220   14.0720   -4.2660 C   0  0  0  0  0  0  0  0  0  0  0  0
    0.7620   16.1450   -4.9470 C   0  0  0  0  0  0  0  0  0  0  0  0
   -0.6700   17.8840   -5.6300 C   0  0  0  0  0  0  0  0  0  0  0  0
   -3.0900   14.9780    1.0910 C   0  0  0  0  0  0  0  0  0  0  0  0
   -0.5910   14.1940    0.0840 N   0  0  0  0  0  0  0  0  0  0  0  0
   -0.4370   12.7530   -3.0220 C   0  0  0  0  0  0  0  0  0  0  0  0
    1.5220   14.5090   -3.8670 C   0  0  0  0  0  0  0  0  0  0  0  0
    1.7920   15.7800   -4.2630 N   0  0  0  0  0  0  0  0  0  0  0  0
    0.5950   17.4490   -5.6070 C   0  0  0  0  0  0  0  0  0  0  0  0
   -4.2780   15.3610    1.6950 N   0  0  0  0  0  0  0  0  0  0  0  0
    2.4770   13.6840   -3.0770 C   0  0  0  0  0  0  0  0  0  0  0  0
   -2.0590   14.6310    1.9060 N   0  0  0  0  0  0  0  0  0  0  0  0
   -0.8870   14.2640    1.3700 C   0  0  0  0  0  0  0  0  0  0  0  0
    0.4090   11.6970   -2.7890 C   0  0  0  0  0  0  0  0  0  0  0  0
   -1.5350   12.3290   -3.7210 O   0  0  0  0  0  0  0  0  0  0  0  0
    3.1920   14.4140   -2.1930 O   0  0  0  0  0  0  0  0  0  0  0  0
    2.6210   12.4860   -3.2070 O   0  0  0  0  0  0  0  0  0  0  0  0
   -1.3730   11.0020   -3.9350 C   0  0  0  0  0  0  0  0  0  0  0  0
   -0.1940   10.5730   -3.3830 C   0  0  0  0  0  0  0  0  0  0  0  0
  1  2  1  0
  2  3  2  0
  1  4  1  0
  2  5  1  0
  4  6  1  0
  4  7  2  0
  3  8  1  0
  5  9  1  0
  3 10  1  0
  5 11  1  0
 10 11  2  0
  6 12  1  1
  6 13  1  0
  7 14  1  0
 10 15  1  0
 11 16  1  0
  9 17  1  0
 12 18  2  0
 13 19  2  0
 18 19  1  0
 13 20  1  0
 14 20  2  0
 15 21  1  0
 18 22  1  0
 15 23  2  0
 16 24  2  0
 23 24  1  0
 17 25  2  0
 17 26  1  0
 22 27  1  0
 22 28  2  0
 26 29  1  0
 25 30  1  0
 29 30  2  0
M  END
