mac-x0231-diamond-x0905_0_A
     RDKit          3D

 24 26  0  0  0  0  0  0  0  0999 V2000
    0.9190   10.6030   -3.1720 O   0  0  0  0  0  0  0  0  0  0  0  0
    1.3750   11.8640   -3.1120 C   0  0  0  0  0  0  0  0  0  0  0  0
    1.3620   12.4510   -2.0440 O   0  0  0  0  0  0  0  0  0  0  0  0
    1.8630   12.4140   -4.4140 C   0  0  0  0  0  0  0  0  0  0  0  0
    1.4050   13.8380   -4.4780 C   0  0  0  0  0  0  0  0  0  0  0  0
   -0.0170   14.0840   -4.6570 C   0  0  0  0  0  0  0  0  0  0  0  0
    2.2640   14.7810   -4.3070 N   0  0  0  0  0  0  0  0  0  0  0  0
   -0.4340   15.4070   -4.6770 C   0  0  0  0  0  0  0  0  0  0  0  0
    1.8180   16.0660   -4.3220 N   0  0  0  0  0  0  0  0  0  0  0  0
   -0.9300   13.0420   -4.7850 C   0  0  0  0  0  0  0  0  0  0  0  0
    0.5450   16.4800   -4.5550 C   0  0  0  0  0  0  0  0  0  0  0  0
   -1.7640   15.7030   -4.7980 C   0  0  0  0  0  0  0  0  0  0  0  0
   -2.2680   13.3370   -4.9080 C   0  0  0  0  0  0  0  0  0  0  0  0
    0.2270   17.6630   -4.6580 O   0  0  0  0  0  0  0  0  0  0  0  0
   -2.6630   14.6630   -4.9000 C   0  0  0  0  0  0  0  0  0  0  0  0
   -4.0650   14.9960   -4.9790 C   0  0  0  0  0  0  0  0  0  0  0  0
   -4.8080   14.2820   -3.8410 C   0  0  0  0  0  0  0  0  0  0  0  0
   -4.6930   14.7000   -2.3660 C   0  0  0  0  0  0  0  0  0  0  0  0
   -3.5580   14.9840   -1.5580 C   0  0  0  0  0  0  0  0  0  0  0  0
   -5.9190   14.7820   -1.7670 C   0  0  0  0  0  0  0  0  0  0  0  0
   -3.7800   15.3200   -0.2090 C   0  0  0  0  0  0  0  0  0  0  0  0
   -6.0180   15.1110   -0.4650 C   0  0  0  0  0  0  0  0  0  0  0  0
   -7.2560   15.1650    0.0670 O   0  0  0  0  0  0  0  0  0  0  0  0
   -5.0030   15.3900    0.3630 N   0  0  0  0  0  0  0  0  0  0  0  0
  1  2  1  0
  2  3  2  0
  2  4  1  0
  4  5  1  0
  5  6  1  0
  5  7  2  0
  6  8  2  0
  7  9  1  0
  6 10  1  0
  8 11  1  0
  9 11  1  0
  8 12  1  0
 10 13  2  0
 11 14  2  0
 12 15  2  0
 13 15  1  0
 15 16  1  0
 16 17  1  0
 17 18  1  0
 18 19  2  0
 18 20  1  0
 19 21  1  0
 20 22  2  0
 22 23  1  0
 21 24  2  0
 22 24  1  0
M  END
