mac-x0567-diamond-x0864_0_A
     RDKit          3D

 24 26  0  0  0  0  0  0  0  0999 V2000
   -0.5340   14.2830   -1.6880 N   0  0  0  0  0  0  0  0  0  0  0  0
   -1.4750   14.5330   -0.7700 C   0  0  0  0  0  0  0  0  0  0  0  0
   -1.2270   14.4500    0.5140 N   0  0  0  0  0  0  0  0  0  0  0  0
   -2.7250   14.8850   -0.8690 C   0  0  0  0  0  0  0  0  0  0  0  0
    0.0980   14.0690    0.7600 C   0  0  0  0  0  0  0  0  0  0  0  0
   -2.2610   14.7400    1.3590 N   0  0  0  0  0  0  0  0  0  0  0  0
   -3.2450   15.0270    0.4640 C   0  0  0  0  0  0  0  0  0  0  0  0
   -3.3350   15.0620   -2.0800 C   0  0  0  0  0  0  0  0  0  0  0  0
    0.7130   13.8000   -0.6860 C   0  0  0  0  0  0  0  0  0  0  0  0
   -4.5770   15.4090    0.6110 C   0  0  0  0  0  0  0  0  0  0  0  0
   -4.6520   15.4360   -1.9060 C   0  0  0  0  0  0  0  0  0  0  0  0
    0.4850   12.4090   -1.2090 N   0  0  0  0  0  0  0  0  0  0  0  0
   -5.2520   15.6040   -0.6270 C   0  0  0  0  0  0  0  0  0  0  0  0
    0.4650   11.9590   -2.4490 C   0  0  0  0  0  0  0  0  0  0  0  0
    0.6150   12.5720   -3.8570 C   0  0  0  0  0  0  0  0  0  0  0  0
    0.2690   10.6120   -2.4920 O   0  0  0  0  0  0  0  0  0  0  0  0
   -0.0900   11.7840   -4.9090 N   0  0  0  0  0  0  0  0  0  0  0  0
   -1.3170   11.2040   -4.6130 C   0  0  0  0  0  0  0  0  0  0  0  0
    0.5370   11.5460   -6.1380 C   0  0  0  0  0  0  0  0  0  0  0  0
    1.5090   12.1580   -6.5590 O   0  0  0  0  0  0  0  0  0  0  0  0
   -1.8570   10.2660   -5.4120 C   0  0  0  0  0  0  0  0  0  0  0  0
   -0.0250   10.4430   -6.9700 C   0  0  0  0  0  0  0  0  0  0  0  0
   -1.1650    9.8430   -6.6050 C   0  0  0  0  0  0  0  0  0  0  0  0
   -1.9130    8.4460   -7.5940 Br  0  0  0  0  0  0  0  0  0  0  0  0
  1  2  1  0
  2  3  1  0
  2  4  2  0
  3  5  1  0
  3  6  1  0
  4  7  1  0
  6  7  2  0
  4  8  1  0
  5  9  1  0
  7 10  1  0
  8 11  2  0
  9 12  1  0
 10 13  2  0
 11 13  1  0
 12 14  2  3
 14 15  1  0
 14 16  1  0
 15 17  1  0
 17 18  1  0
 17 19  1  0
 19 20  2  0
 18 21  2  0
 19 22  1  0
 21 23  1  0
 22 23  2  0
 23 24  1  0
M  END
