mac-x0373-mac-x0527
     RDKit          3D

 18 19  0  0  0  0  0  0  0  0999 V2000
    0.2550   12.7500   -1.4360 O   0  0  0  0  0  0  0  0  0  0  0  0
    0.0650   14.0380   -1.8740 C   0  0  0  0  0  0  0  0  0  0  0  0
    0.8880   14.9090   -1.6300 O   0  0  0  0  0  0  0  0  0  0  0  0
   -1.2400   14.2580   -2.7090 C   0  0  1  0  0  0  0  0  0  0  0  0
   -0.8540   15.3030   -3.7920 C   0  0  0  0  0  0  0  0  0  0  0  0
   -1.6430   13.0060   -3.5290 C   0  0  0  0  0  0  0  0  0  0  0  0
   -2.3700   14.7200   -1.7450 C   0  0  0  0  0  0  0  0  0  0  0  0
   -1.0290   12.7220   -4.7680 C   0  0  0  0  0  0  0  0  0  0  0  0
   -2.6250   12.1100   -3.0720 C   0  0  0  0  0  0  0  0  0  0  0  0
   -3.5830   15.2420   -2.2380 C   0  0  0  0  0  0  0  0  0  0  0  0
   -2.2280   14.6360   -0.3380 C   0  0  0  0  0  0  0  0  0  0  0  0
   -1.3830   11.5970   -5.5130 C   0  0  0  0  0  0  0  0  0  0  0  0
   -2.9810   10.9830   -3.8180 C   0  0  0  0  0  0  0  0  0  0  0  0
   -4.5980   15.6600   -1.3720 C   0  0  0  0  0  0  0  0  0  0  0  0
   -3.2480   15.0580    0.5250 C   0  0  0  0  0  0  0  0  0  0  0  0
   -3.8670   15.3840   -3.5680 O   0  0  0  0  0  0  0  0  0  0  0  0
   -2.3600   10.7290   -5.0380 C   0  0  0  0  0  0  0  0  0  0  0  0
   -4.4290   15.5700    0.0060 C   0  0  0  0  0  0  0  0  0  0  0  0
  1  2  1  0
  2  3  2  0
  4  2  1  0
  4  5  1  6
  4  6  1  0
  4  7  1  0
  6  8  2  0
  6  9  1  0
  7 10  2  0
  7 11  1  0
  8 12  1  0
  9 13  2  0
 10 14  1  0
 11 15  2  0
 10 16  1  0
 12 17  2  0
 13 17  1  0
 14 18  2  0
 15 18  1  0
M  END
