mac-x0398-mac-x0567
     RDKit          3D

 16 17  0  0  0  0  0  0  0  0999 V2000
   -6.0560   14.9670    2.0260 N   0  0  0  0  0  0  0  0  0  0  0  0
   -5.8110   14.0910    0.8880 C   0  0  2  0  0  0  0  0  0  0  0  0
   -4.3180   13.6750    0.7360 C   0  0  0  0  0  0  0  0  0  0  0  0
   -6.4460   14.6620   -0.3700 C   0  0  0  0  0  0  0  0  0  0  0  0
   -5.4810   14.6650   -1.5380 C   0  0  1  0  0  0  0  0  0  0  0  0
   -3.3710   14.6230   -0.0400 C   0  0  1  0  0  0  0  0  0  0  0  0
   -6.1010   15.3490   -2.6300 O   0  0  0  0  0  0  0  0  0  0  0  0
   -4.0920   15.2610   -1.2730 C   0  0  1  0  0  0  0  0  0  0  0  0
   -2.9060   15.6410    0.9420 N   0  0  0  0  0  0  0  0  0  0  0  0
   -2.0520   13.9220   -0.4180 C   0  0  0  0  0  0  0  0  0  0  0  0
   -3.3460   15.1750   -2.5990 C   0  0  0  0  0  0  0  0  0  0  0  0
   -1.0190   14.1840    0.6700 C   0  0  2  0  0  0  0  0  0  0  0  0
   -1.6420   15.1760    1.5100 N   0  0  0  0  0  0  0  0  0  0  0  0
   -3.8870   15.0940   -3.6940 O   0  0  0  0  0  0  0  0  0  0  0  0
   -2.0130   15.1790   -2.5470 O   0  0  0  0  0  0  0  0  0  0  0  0
    0.2020   14.7700    0.1730 N   0  0  0  0  0  0  0  0  0  0  0  0
  2  1  1  1
  2  3  1  0
  2  4  1  0
  4  5  1  0
  6  3  1  1
  5  7  1  6
  5  8  1  0
  6  8  1  0
  6  9  1  0
  6 10  1  0
  8 11  1  6
 10 12  1  0
  9 13  1  0
 12 13  1  0
 11 14  2  0
 11 15  1  0
 12 16  1  6
M  END
