mac-x0360-diamond-x0282_0_A
     RDKit          3D

 26 29  0  0  0  0  0  0  0  0999 V2000
   -7.6340   11.3350    1.3370 Cl  0  0  0  0  0  0  0  0  0  0  0  0
   -6.5750   11.3380   -0.0250 C   0  0  0  0  0  0  0  0  0  0  0  0
   -6.4440   10.2160   -0.8200 C   0  0  0  0  0  0  0  0  0  0  0  0
   -5.8400   12.4640   -0.3350 C   0  0  0  0  0  0  0  0  0  0  0  0
   -4.9790   12.4560   -1.4430 C   0  0  0  0  0  0  0  0  0  0  0  0
   -5.5720   10.2450   -1.9100 C   0  0  0  0  0  0  0  0  0  0  0  0
   -5.3880    8.8600   -2.8960 Cl  0  0  0  0  0  0  0  0  0  0  0  0
   -4.0830   13.8610   -1.7410 S   0  0  1  0  0  0  0  0  0  0  0  0
   -4.8330   11.3640   -2.2330 C   0  0  0  0  0  0  0  0  0  0  0  0
   -2.4810   13.6720   -2.2450 N   0  0  0  0  0  0  0  0  0  0  0  0
   -4.3160   13.7560   -0.0600 C   0  0  1  0  0  0  0  0  0  0  0  0
   -4.5910   15.5040   -1.4490 C   0  0  0  0  0  0  0  0  0  0  0  0
   -4.2420   15.9610   -0.2640 N   0  0  0  0  0  0  0  0  0  0  0  0
   -3.5390   14.8620    0.4840 C   0  0  1  0  0  0  0  0  0  0  0  0
   -5.8230   14.0390    0.1180 C   0  0  0  0  0  0  0  0  0  0  0  0
   -6.1990   14.1280    1.5690 C   0  0  2  0  0  0  0  0  0  0  0  0
   -3.8380   14.7790    1.9400 C   0  0  0  0  0  0  0  0  0  0  0  0
   -2.0510   14.7630    0.3110 C   0  0  0  0  0  0  0  0  0  0  0  0
   -7.6960   14.4390    1.7180 C   0  0  0  0  0  0  0  0  0  0  0  0
   -5.2610   15.1790    2.1270 C   0  0  0  0  0  0  0  0  0  0  0  0
   -1.6100   14.7680   -0.9530 N   0  0  0  0  0  0  0  0  0  0  0  0
   -1.3030   14.6800    1.4220 N   0  0  0  0  0  0  0  0  0  0  0  0
   -8.3170   14.7290    0.4650 O   0  0  0  0  0  0  0  0  0  0  0  0
   -0.3080   14.6990   -1.1330 C   0  0  0  0  0  0  0  0  0  0  0  0
   -0.0050   14.6170    1.1740 C   0  0  0  0  0  0  0  0  0  0  0  0
    0.5510   14.6260   -0.1030 C   0  0  0  0  0  0  0  0  0  0  0  0
  1  2  1  0
  2  3  2  0
  2  4  1  0
  4  5  2  0
  3  6  1  0
  6  7  1  0
  5  8  1  0
  5  9  1  0
  6  9  2  0
  8 10  1  1
  8 11  1  0
  8 12  1  0
 12 13  2  0
 11 14  1  0
 13 14  1  0
 11 15  1  6
 15 16  1  0
 14 17  1  0
 14 18  1  1
 16 19  1  6
 16 20  1  0
 17 20  1  0
 18 21  2  0
 18 22  1  0
 19 23  1  0
 21 24  1  0
 22 25  2  0
 24 26  2  0
 25 26  1  0
M  END
