mac-x0441-mac-x0510
     RDKit          3D

 31 34  0  0  0  0  0  0  0  0999 V2000
    0.4270   10.9050   -3.4130 O   0  0  0  0  0  0  0  0  0  0  0  0
    0.7760   12.2070   -3.5340 C   0  0  0  0  0  0  0  0  0  0  0  0
    1.2680   12.8030   -2.5910 O   0  0  0  0  0  0  0  0  0  0  0  0
    0.5200   12.8340   -4.9010 C   0  0  2  0  0  0  0  0  0  0  0  0
   -0.4620   14.0320   -4.8720 C   0  0  0  0  0  0  0  0  0  0  0  0
    0.2100   11.8330   -5.9230 N   0  0  0  0  0  0  0  0  0  0  0  0
   -1.2890   14.2150   -3.5810 C   0  0  0  0  0  0  0  0  0  0  0  0
    0.9840   11.8280   -7.0490 N   0  0  0  0  0  0  0  0  0  0  0  0
   -0.7550   10.8650   -5.9670 C   0  0  0  0  0  0  0  0  0  0  0  0
   -1.8690   15.6270   -3.3680 C   0  0  0  0  0  0  0  0  0  0  0  0
    0.4780   10.8310   -7.8210 C   0  0  0  0  0  0  0  0  0  0  0  0
   -0.6000   10.2110   -7.1690 C   0  0  0  0  0  0  0  0  0  0  0  0
   -1.8020   10.5240   -4.9620 C   0  0  0  0  0  0  0  0  0  0  0  0
    0.9510   10.3960   -9.1960 C   0  0  0  0  0  0  0  0  0  0  0  0
   -3.1440   15.5510   -2.6630 N   0  0  0  0  0  0  0  0  0  0  0  0
   -1.4500    9.0780   -7.6260 C   0  0  0  0  0  0  0  0  0  0  0  0
   -2.9360    9.7600   -5.6700 C   0  0  0  0  0  0  0  0  0  0  0  0
    1.6340    9.2240   -9.1530 F   0  0  0  0  0  0  0  0  0  0  0  0
   -0.1050   10.1760  -10.0090 F   0  0  0  0  0  0  0  0  0  0  0  0
    1.6950   11.2830   -9.8790 F   0  0  0  0  0  0  0  0  0  0  0  0
   -2.3940    8.5930   -6.5120 C   0  0  0  0  0  0  0  0  0  0  0  0
   -3.2610   15.3630   -1.4020 C   0  0  0  0  0  0  0  0  0  0  0  0
   -2.2720   15.1860   -0.3990 C   0  0  0  0  0  0  0  0  0  0  0  0
   -4.5450   15.3040   -0.9050 N   0  0  0  0  0  0  0  0  0  0  0  0
   -4.9110   15.0560    0.4020 C   0  0  0  0  0  0  0  0  0  0  0  0
   -2.6070   14.9690    0.9130 C   0  0  0  0  0  0  0  0  0  0  0  0
   -0.9080   15.1690   -0.3980 N   0  0  0  0  0  0  0  0  0  0  0  0
   -6.0920   14.9540    0.7190 O   0  0  0  0  0  0  0  0  0  0  0  0
   -3.9060   14.9190    1.3190 N   0  0  0  0  0  0  0  0  0  0  0  0
   -1.5300   14.8160    1.7130 N   0  0  0  0  0  0  0  0  0  0  0  0
   -0.5070   14.9460    0.8940 C   0  0  0  0  0  0  0  0  0  0  0  0
  1  2  1  0
  2  3  2  0
  2  4  1  0
  4  5  1  1
  4  6  1  0
  5  7  1  0
  6  8  1  0
  6  9  1  0
  7 10  1  0
  8 11  2  0
  9 12  2  0
 11 12  1  0
  9 13  1  0
 11 14  1  0
 10 15  1  0
 12 16  1  0
 13 17  1  0
 14 18  1  0
 14 19  1  0
 14 20  1  0
 16 21  1  0
 17 21  1  0
 15 22  2  3
 22 23  1  0
 22 24  1  0
 24 25  1  0
 23 26  2  0
 23 27  1  0
 25 28  2  0
 25 29  1  0
 26 29  1  0
 26 30  1  0
 27 31  1  0
 30 31  2  0
M  END
