mac-x0255-diamond-x0950_0_A
     RDKit          3D

 15 16  0  0  0  0  0  0  0  0999 V2000
    0.9480   12.9940   -1.7770 O   0  0  0  0  0  0  0  0  0  0  0  0
    0.6970   12.2370   -2.8620 C   0  0  0  0  0  0  0  0  0  0  0  0
    0.0720   11.1920   -2.7440 O   0  0  0  0  0  0  0  0  0  0  0  0
    1.2610   12.8040   -4.1790 C   0  0  1  0  0  0  0  0  0  0  0  0
    2.7810   12.9290   -4.0680 C   0  0  0  0  0  0  0  0  0  0  0  0
    0.9840   11.9420   -5.2850 O   0  0  0  0  0  0  0  0  0  0  0  0
    0.5890   14.1160   -4.5130 C   0  0  0  0  0  0  0  0  0  0  0  0
    1.1580   15.3530   -4.7020 C   0  0  0  0  0  0  0  0  0  0  0  0
   -1.1170   14.1980   -4.7190 S   0  0  0  0  0  0  0  0  0  0  0  0
    0.2190   16.3780   -5.0290 C   0  0  0  0  0  0  0  0  0  0  0  0
   -1.0840   15.8770   -5.0730 C   0  0  0  0  0  0  0  0  0  0  0  0
    0.4210   17.7440   -5.3010 C   0  0  0  0  0  0  0  0  0  0  0  0
   -2.1800   16.7020   -5.3800 C   0  0  0  0  0  0  0  0  0  0  0  0
   -0.6590   18.5620   -5.6110 C   0  0  0  0  0  0  0  0  0  0  0  0
   -1.9410   18.0490   -5.6500 C   0  0  0  0  0  0  0  0  0  0  0  0
  1  2  1  0
  2  3  2  0
  2  4  1  0
  4  5  1  1
  4  6  1  0
  4  7  1  0
  7  8  2  0
  7  9  1  0
  8 10  1  0
  9 11  1  0
 10 11  2  0
 10 12  1  0
 11 13  1  0
 12 14  2  0
 13 15  2  0
 14 15  1  0
M  END
