mac-x0436-mac-x0116
     RDKit          3D

 33 37  0  0  0  0  0  0  0  0999 V2000
    1.0990   11.6410   -2.5060 O   0  0  0  0  0  0  0  0  0  0  0  0
    1.0920   12.8850   -3.0250 C   0  0  0  0  0  0  0  0  0  0  0  0
    0.8920   13.9770   -2.3620 N   0  0  0  0  0  0  0  0  0  0  0  0
    1.3560   12.9800   -4.5010 C   0  0  0  0  0  0  0  0  0  0  0  0
    0.0950   13.2540   -5.2860 C   0  0  0  0  0  0  0  0  0  0  0  0
    0.7270   13.9590   -0.9160 C   0  0  0  0  0  0  0  0  0  0  0  0
   -0.5600   11.9510   -5.6460 C   0  0  0  0  0  0  0  0  0  0  0  0
   -0.5060   14.2620   -0.2110 N   0  0  0  0  0  0  0  0  0  0  0  0
   -1.8070   11.5550   -4.8600 C   0  0  0  0  0  0  0  0  0  0  0  0
   -0.0580   11.2230   -6.5920 N   0  0  0  0  0  0  0  0  0  0  0  0
   -1.7770   14.5900   -0.6170 C   0  0  0  0  0  0  0  0  0  0  0  0
   -0.5160   14.2340    1.1620 C   0  0  0  0  0  0  0  0  0  0  0  0
   -2.1960   12.2620   -3.9380 O   0  0  0  0  0  0  0  0  0  0  0  0
   -2.4150   10.3930   -5.2470 N   0  0  0  0  0  0  0  0  0  0  0  0
   -0.7000   10.0230   -6.9100 C   0  0  0  0  0  0  0  0  0  0  0  0
   -2.2820   14.7480   -1.8570 N   0  0  0  0  0  0  0  0  0  0  0  0
   -2.4800   14.7280    0.5820 C   0  0  0  0  0  0  0  0  0  0  0  0
   -1.6770   14.5040    1.6730 N   0  0  0  0  0  0  0  0  0  0  0  0
   -1.8680    9.5940   -6.2570 C   0  0  0  0  0  0  0  0  0  0  0  0
   -0.1540    9.2270   -7.9150 C   0  0  0  0  0  0  0  0  0  0  0  0
   -3.5940   15.0710   -1.8040 C   0  0  0  0  0  0  0  0  0  0  0  0
   -3.8370   15.0550    0.5160 C   0  0  0  0  0  0  0  0  0  0  0  0
   -4.6100   15.1950    1.6760 N   0  0  0  0  0  0  0  0  0  0  0  0
   -0.7650    8.0260   -8.2650 C   0  0  0  0  0  0  0  0  0  0  0  0
   -2.4820    8.3960   -6.6010 C   0  0  0  0  0  0  0  0  0  0  0  0
   -4.3810   15.2280   -0.7170 N   0  0  0  0  0  0  0  0  0  0  0  0
   -5.9970   14.7630    1.5960 C   0  0  0  0  0  0  0  0  0  0  0  0
   -1.9260    7.6110   -7.6120 C   0  0  0  0  0  0  0  0  0  0  0  0
   -6.3620   13.3230    1.6680 C   0  0  0  0  0  0  0  0  0  0  0  0
   -6.3180   12.6270    0.4930 O   0  0  0  0  0  0  0  0  0  0  0  0
   -6.7660   12.4950    2.6900 C   0  0  0  0  0  0  0  0  0  0  0  0
   -6.9850   11.2320    2.1170 C   0  0  0  0  0  0  0  0  0  0  0  0
   -6.6980   11.3610    0.7780 C   0  0  0  0  0  0  0  0  0  0  0  0
  1  2  1  0
  2  3  2  3
  2  4  1  0
  4  5  1  0
  3  6  1  0
  5  7  1  0
  6  8  1  0
  7  9  1  0
  7 10  2  0
  8 11  1  0
  8 12  1  0
  9 13  2  0
  9 14  1  0
 10 15  1  0
 11 16  2  0
 11 17  1  0
 12 18  2  0
 17 18  1  0
 14 19  1  0
 15 19  2  0
 15 20  1  0
 16 21  1  0
 17 22  2  0
 22 23  1  0
 20 24  2  0
 19 25  1  0
 21 26  2  0
 22 26  1  0
 23 27  1  0
 24 28  1  0
 25 28  2  0
 27 29  1  0
 29 30  1  0
 29 31  2  0
 31 32  1  0
 30 33  1  0
 32 33  2  0
M  END
