mac-x0572-mac-x0417
     RDKit          3D

 29 32  0  0  0  0  0  0  0  0999 V2000
   -7.9620   14.6330    3.2490 C   0  0  0  0  0  0  0  0  0  0  0  0
   -7.1780   14.7360    1.9660 C   0  0  0  0  0  0  0  0  0  0  0  0
   -5.8440   15.0370    2.1550 N   0  0  0  0  0  0  0  0  0  0  0  0
   -7.7470   14.5550    0.7600 C   0  0  0  0  0  0  0  0  0  0  0  0
   -9.0840   14.2640    0.5620 O   0  0  0  0  0  0  0  0  0  0  0  0
   -6.8740   14.6780   -0.4370 C   0  0  0  0  0  0  0  0  0  0  0  0
   -4.9990   14.9140    1.1820 C   0  0  0  0  0  0  0  0  0  0  0  0
   -7.3920   14.9340   -1.5220 O   0  0  0  0  0  0  0  0  0  0  0  0
   -5.3990   14.4420   -0.1930 C   0  0  2  0  0  0  0  0  0  0  0  0
   -3.5750   15.2340    1.4320 C   0  0  0  0  0  0  0  0  0  0  0  0
   -2.7460   15.3980    0.3950 C   0  0  0  0  0  0  0  0  0  0  0  0
   -4.4200   14.8500   -1.2730 C   0  0  0  0  0  0  0  0  0  0  0  0
   -3.1630   15.2790   -0.9940 C   0  0  0  0  0  0  0  0  0  0  0  0
   -2.0870   15.6430   -2.0010 C   0  0  0  0  0  0  0  0  0  0  0  0
   -1.3880   14.4490   -2.7010 C   0  0  0  0  0  0  0  0  0  0  0  0
    0.1490   14.4560   -2.5640 C   0  0  0  0  0  0  0  0  0  0  0  0
    0.7020   13.1280   -2.3500 O   0  0  0  0  0  0  0  0  0  0  0  0
    0.5250   12.1710   -3.3180 C   0  0  0  0  0  0  0  0  0  0  0  0
    0.5200   10.9670   -3.0950 O   0  0  0  0  0  0  0  0  0  0  0  0
    0.3350   12.7940   -4.6850 C   0  0  0  0  0  0  0  0  0  0  0  0
    0.2690   11.7790   -5.7720 C   0  0  0  0  0  0  0  0  0  0  0  0
    1.2640   11.7190   -6.6590 N   0  0  0  0  0  0  0  0  0  0  0  0
   -0.7330   10.8100   -6.0410 C   0  0  0  0  0  0  0  0  0  0  0  0
    0.9220   10.6960   -7.5380 O   0  0  0  0  0  0  0  0  0  0  0  0
   -0.2670   10.1540   -7.1680 C   0  0  0  0  0  0  0  0  0  0  0  0
   -1.9580   10.4070   -5.4850 C   0  0  0  0  0  0  0  0  0  0  0  0
   -0.9350    9.1080   -7.7990 C   0  0  0  0  0  0  0  0  0  0  0  0
   -2.6580    9.3570   -6.0940 C   0  0  0  0  0  0  0  0  0  0  0  0
   -2.1540    8.7180   -7.2310 C   0  0  0  0  0  0  0  0  0  0  0  0
  1  2  1  0
  2  3  1  0
  2  4  2  0
  4  5  1  0
  4  6  1  0
  3  7  2  0
  6  8  2  0
  6  9  1  0
  7  9  1  0
  7 10  1  0
 10 11  2  0
  9 12  1  6
 11 13  1  0
 12 13  2  0
 13 14  1  0
 14 15  1  0
 15 16  1  0
 16 17  1  0
 17 18  1  0
 18 19  2  0
 18 20  1  0
 20 21  1  0
 21 22  2  0
 21 23  1  0
 22 24  1  0
 23 25  2  0
 24 25  1  0
 23 26  1  0
 25 27  1  0
 26 28  2  0
 27 29  2  0
 28 29  1  0
M  END
