mac-x0404-diamond-x0805_0_A
     RDKit          3D

 29 32  0  0  0  0  0  0  0  0999 V2000
    2.2230   12.3600   -2.2040 O   0  0  0  0  0  0  0  0  0  0  0  0
    0.8320   12.5640   -2.3660 C   0  0  0  0  0  0  0  0  0  0  0  0
    0.1520   11.6040   -1.5810 O   0  0  0  0  0  0  0  0  0  0  0  0
    0.5420   14.0160   -1.9410 C   0  0  0  0  0  0  0  0  0  0  0  0
    0.5640   12.4100   -3.8420 C   0  0  2  0  0  0  0  0  0  0  0  0
    0.7790   14.9290   -3.0510 O   0  0  0  0  0  0  0  0  0  0  0  0
    1.8640   12.7160   -4.6030 C   0  0  0  0  0  0  0  0  0  0  0  0
   -0.7110   13.1840   -4.2920 C   0  0  1  0  0  0  0  0  0  0  0  0
   -0.3570   15.3290   -3.7790 C   0  0  0  0  0  0  0  0  0  0  0  0
   -1.9000   13.3390   -3.3010 C   0  0  0  0  0  0  0  0  0  0  0  0
    2.0820   14.0920   -4.5480 O   0  0  0  0  0  0  0  0  0  0  0  0
   -0.3200   14.5530   -4.8890 C   0  0  0  0  0  0  0  0  0  0  0  0
   -0.3200   16.4800   -4.5990 C   0  0  0  0  0  0  0  0  0  0  0  0
   -1.5430   14.5810   -3.7020 C   0  0  0  0  0  0  0  0  0  0  0  0
   -3.0150   12.4940   -3.4730 C   0  0  0  0  0  0  0  0  0  0  0  0
   -1.9800   14.2670   -2.2170 C   0  0  0  0  0  0  0  0  0  0  0  0
    1.1120   14.6590   -5.3940 C   0  0  0  0  0  0  0  0  0  0  0  0
   -1.4740   16.8630   -5.3260 C   0  0  0  0  0  0  0  0  0  0  0  0
   -2.6810   14.9690   -4.4280 C   0  0  0  0  0  0  0  0  0  0  0  0
    0.8340   17.2530   -4.7110 C   0  0  0  0  0  0  0  0  0  0  0  0
   -3.0940   14.3410   -1.3680 C   0  0  0  0  0  0  0  0  0  0  0  0
   -4.1240   12.5690   -2.6290 C   0  0  0  0  0  0  0  0  0  0  0  0
   -2.9970   15.2860   -0.3790 O   0  0  0  0  0  0  0  0  0  0  0  0
   -2.6420   16.1000   -5.2300 C   0  0  0  0  0  0  0  0  0  0  0  0
   -1.4280   18.0020   -6.1360 C   0  0  0  0  0  0  0  0  0  0  0  0
    0.8700   18.3770   -5.5220 C   0  0  0  0  0  0  0  0  0  0  0  0
   -4.1670   13.4870   -1.5800 C   0  0  0  0  0  0  0  0  0  0  0  0
   -4.1480   15.5570    0.4130 C   0  0  0  0  0  0  0  0  0  0  0  0
   -0.2600   18.7530   -6.2340 C   0  0  0  0  0  0  0  0  0  0  0  0
  2  1  1  0
  2  3  1  0
  2  4  1  0
  5  2  1  1
  4  6  1  0
  5  7  1  0
  5  8  1  0
  6  9  1  0
  8 10  1  1
  7 11  1  0
  8 12  1  0
  9 13  1  0
  9 14  2  0
 10 15  2  0
 10 16  1  0
 11 17  1  0
 12 17  1  0
 13 18  2  0
 14 19  1  0
 13 20  1  0
 16 21  2  0
 15 22  1  0
 21 23  1  0
 18 24  1  0
 19 24  2  0
 18 25  1  0
 20 26  2  0
 21 27  1  0
 22 27  2  0
 23 28  1  0
 25 29  2  0
 26 29  1  0
M  END
