mac-x0228-mac-x0433
     RDKit          3D

 14 15  0  0  0  0  0  0  0  0999 V2000
   -0.7760   14.6520   -2.0320 O   0  0  0  0  0  0  0  0  0  0  0  0
   -1.7030   14.7190   -3.0020 C   0  0  0  0  0  0  0  0  0  0  0  0
   -1.3980   14.7030   -4.1760 O   0  0  0  0  0  0  0  0  0  0  0  0
   -3.0740   14.8070   -2.4820 C   0  0  0  0  0  0  0  0  0  0  0  0
   -3.3280   14.8910   -1.1210 C   0  0  0  0  0  0  0  0  0  0  0  0
   -4.1310   14.8010   -3.4050 C   0  0  0  0  0  0  0  0  0  0  0  0
   -4.6340   14.9630   -0.7260 C   0  0  0  0  0  0  0  0  0  0  0  0
   -5.4470   14.8730   -2.9740 C   0  0  0  0  0  0  0  0  0  0  0  0
   -5.6880   14.9510   -1.6310 C   0  0  0  0  0  0  0  0  0  0  0  0
   -5.1350   15.0560    0.6440 C   0  0  2  0  0  0  0  0  0  0  0  0
   -4.2740   14.1900    1.5290 C   0  0  0  0  0  0  0  0  0  0  0  0
   -6.9410   15.0310   -1.0290 N   0  0  0  0  0  0  0  0  0  0  0  0
   -6.6220   14.6390    0.3910 C   0  0  0  0  0  0  0  0  0  0  0  0
   -7.6120   16.2070   -1.4200 N   0  0  0  0  0  0  0  0  0  0  0  0
  1  2  1  0
  2  3  2  0
  2  4  1  0
  4  5  2  0
  4  6  1  0
  5  7  1  0
  6  8  2  0
  7  9  2  0
  8  9  1  0
  7 10  1  0
 10 11  1  1
  9 12  1  0
 10 13  1  0
 12 13  1  0
 12 14  1  0
M  END
