mac-x1493-mac-x0397
     RDKit          3D

 14 15  0  0  0  0  0  0  0  0999 V2000
   -1.4650   14.5810   -1.3370 O   0  0  0  0  0  0  0  0  0  0  0  0
   -2.3250   14.8160   -2.3580 C   0  0  0  0  0  0  0  0  0  0  0  0
   -1.9810   14.6990   -3.5240 O   0  0  0  0  0  0  0  0  0  0  0  0
   -3.7080   15.2400   -1.9060 C   0  0  2  0  0  0  0  0  0  0  0  0
   -3.7900   15.3950   -0.3820 C   0  0  0  0  0  0  0  0  0  0  0  0
   -4.7960   14.3520   -2.5110 C   0  0  0  0  0  0  0  0  0  0  0  0
   -4.6980   14.3940    0.3480 C   0  0  2  0  0  0  0  0  0  0  0  0
   -6.0640   14.2840   -1.7840 N   0  0  0  0  0  0  0  0  0  0  0  0
   -7.0470   15.7330   -1.8900 Cl  0  0  0  0  0  0  0  0  0  0  0  0
   -5.9410   13.8250   -0.4140 C   0  0  2  0  0  0  0  0  0  0  0  0
   -5.0530   15.0110    1.6720 C   0  0  0  0  0  0  0  0  0  0  0  0
   -7.2760   13.9270    0.2980 C   0  0  0  0  0  0  0  0  0  0  0  0
   -6.2900   15.0190    2.1890 C   0  0  0  0  0  0  0  0  0  0  0  0
   -7.4160   14.4740    1.5020 C   0  0  0  0  0  0  0  0  0  0  0  0
  1  2  1  0
  2  3  2  0
  4  2  1  1
  4  5  1  0
  4  6  1  0
  7  5  1  6
  6  8  1  0
  8  9  1  0
  7 10  1  0
  8 10  1  0
  7 11  1  0
 10 12  1  1
 11 13  2  0
 12 14  2  0
 13 14  1  0
M  END
