mac-x0213-diamond-x0926_0_A
     RDKit          3D

 22 24  0  0  0  0  0  0  0  0999 V2000
    0.3850   11.8260   -3.5800 O   0  0  0  0  0  0  0  0  0  0  0  0
    0.2590   12.8360   -2.7180 C   0  0  0  0  0  0  0  0  0  0  0  0
    0.4730   12.5380   -1.4880 N   0  0  0  0  0  0  0  0  0  0  0  0
   -0.1340   14.1920   -3.2780 C   0  0  0  0  0  0  0  0  0  0  0  0
    0.3390   13.5940   -0.5140 C   0  0  0  0  0  0  0  0  0  0  0  0
   -1.3500   14.2070   -4.2170 C   0  0  0  0  0  0  0  0  0  0  0  0
    0.9620   14.9460   -4.0610 C   0  0  0  0  0  0  0  0  0  0  0  0
   -1.1290   13.9000   -0.3730 C   0  0  0  0  0  0  0  0  0  0  0  0
   -1.2270   15.6070   -4.7320 C   0  0  0  0  0  0  0  0  0  0  0  0
    0.1050   16.0360   -4.6430 C   0  0  0  0  0  0  0  0  0  0  0  0
   -1.4630   15.2800    0.1690 C   0  0  0  0  0  0  0  0  0  0  0  0
   -2.2200   16.4310   -5.2370 C   0  0  0  0  0  0  0  0  0  0  0  0
    0.4640   17.3080   -5.0630 C   0  0  0  0  0  0  0  0  0  0  0  0
   -1.8640   17.7130   -5.6610 C   0  0  0  0  0  0  0  0  0  0  0  0
   -0.5320   18.1450   -5.5740 C   0  0  0  0  0  0  0  0  0  0  0  0
   -2.9190   15.6880    0.0030 C   0  0  1  0  0  0  0  0  0  0  0  0
   -3.4330   15.2010   -1.2790 N   0  0  0  0  0  0  0  0  0  0  0  0
   -3.8010   15.3410    1.1540 C   0  0  0  0  0  0  0  0  0  0  0  0
   -5.0970   15.0810    0.9770 C   0  0  0  0  0  0  0  0  0  0  0  0
   -4.8250   15.3890   -1.4220 N   0  0  0  0  0  0  0  0  0  0  0  0
   -5.6840   15.1330   -0.3770 C   0  0  0  0  0  0  0  0  0  0  0  0
   -6.8820   14.9530   -0.5470 O   0  0  0  0  0  0  0  0  0  0  0  0
  1  2  1  0
  2  3  2  3
  2  4  1  0
  3  5  1  0
  4  6  1  0
  4  7  1  0
  5  8  1  0
  6  9  1  0
  7 10  1  0
  9 10  2  0
  8 11  1  0
  9 12  1  0
 10 13  1  0
 12 14  2  0
 13 15  2  0
 14 15  1  0
 16 11  1  1
 16 17  1  0
 16 18  1  0
 18 19  2  0
 17 20  1  0
 19 21  1  0
 20 21  1  0
 21 22  2  0
M  END
