mac-x0441-mac-x0496
     RDKit          3D

 38 41  0  0  0  0  0  0  0  0999 V2000
    0.5160   10.8090   -3.1130 O   0  0  0  0  0  0  0  0  0  0  0  0
    0.8440   12.0720   -3.4560 C   0  0  0  0  0  0  0  0  0  0  0  0
    1.6860   12.6840   -2.8100 O   0  0  0  0  0  0  0  0  0  0  0  0
    0.1100   12.6590   -4.6460 C   0  0  1  0  0  0  0  0  0  0  0  0
    0.1680   14.1710   -4.9190 C   0  0  0  0  0  0  0  0  0  0  0  0
   -0.0010   11.7580   -5.8130 N   0  0  0  0  0  0  0  0  0  0  0  0
   -1.0840   14.9690   -4.4920 C   0  0  0  0  0  0  0  0  0  0  0  0
    0.8350   11.8400   -6.9080 N   0  0  0  0  0  0  0  0  0  0  0  0
   -0.9130   10.7630   -5.9610 C   0  0  0  0  0  0  0  0  0  0  0  0
   -1.3740   14.7610   -3.0490 N   0  0  0  0  0  0  0  0  0  0  0  0
    0.3970   10.8500   -7.7550 C   0  0  0  0  0  0  0  0  0  0  0  0
   -0.6830   10.1750   -7.1740 C   0  0  0  0  0  0  0  0  0  0  0  0
   -1.9800   10.3580   -5.0140 C   0  0  0  0  0  0  0  0  0  0  0  0
    0.9150   10.4520   -9.1290 C   0  0  0  0  0  0  0  0  0  0  0  0
   -2.5850   14.9870   -2.6470 C   0  0  0  0  0  0  0  0  0  0  0  0
   -1.4780    9.0380   -7.7100 C   0  0  0  0  0  0  0  0  0  0  0  0
   -3.0470    9.5590   -5.7730 C   0  0  0  0  0  0  0  0  0  0  0  0
    1.6080    9.2820   -9.0900 F   0  0  0  0  0  0  0  0  0  0  0  0
   -0.0980   10.2200   -9.9930 F   0  0  0  0  0  0  0  0  0  0  0  0
    1.6750   11.3370   -9.7920 F   0  0  0  0  0  0  0  0  0  0  0  0
   -3.4800   15.3810   -3.5590 O   0  0  0  0  0  0  0  0  0  0  0  0
   -2.4210    8.4590   -6.6410 C   0  0  0  0  0  0  0  0  0  0  0  0
   -3.2320   14.9200   -1.3230 C   0  0  0  0  0  0  0  0  0  0  0  0
   -2.4400   14.9690   -0.1640 C   0  0  0  0  0  0  0  0  0  0  0  0
   -4.6250   14.8130   -1.2380 C   0  0  0  0  0  0  0  0  0  0  0  0
   -3.0420   14.9300    1.0860 C   0  0  0  0  0  0  0  0  0  0  0  0
   -5.2080   14.7640    0.0270 C   0  0  0  0  0  0  0  0  0  0  0  0
   -6.6570   14.6320    0.2750 C   0  0  0  0  0  0  0  0  0  0  0  0
   -4.4210   14.8340    1.1650 C   0  0  0  0  0  0  0  0  0  0  0  0
   -7.1180   14.0930    1.4570 N   0  0  0  0  0  0  0  0  0  0  0  0
   -7.4550   14.9890   -0.5870 O   0  0  0  0  0  0  0  0  0  0  0  0
   -8.4820   13.8610    1.8860 C   0  0  0  0  0  0  0  0  0  0  0  0
   -9.0900   15.0850    2.4300 C   0  0  0  0  0  0  0  0  0  0  0  0
   -9.9940   15.7630    1.6720 O   0  0  0  0  0  0  0  0  0  0  0  0
   -8.8520   15.6320    3.6000 N   0  0  0  0  0  0  0  0  0  0  0  0
   -9.6510   16.7290    3.5680 C   0  0  0  0  0  0  0  0  0  0  0  0
  -10.3570   16.8580    2.4330 N   0  0  0  0  0  0  0  0  0  0  0  0
   -9.7020   17.6710    4.7070 C   0  0  0  0  0  0  0  0  0  0  0  0
  1  2  1  0
  2  3  2  0
  2  4  1  0
  4  5  1  6
  4  6  1  0
  5  7  1  0
  6  8  1  0
  6  9  1  0
  7 10  1  0
  8 11  2  0
  9 12  2  0
 11 12  1  0
  9 13  1  0
 11 14  1  0
 10 15  2  3
 12 16  1  0
 13 17  1  0
 14 18  1  0
 14 19  1  0
 14 20  1  0
 15 21  1  0
 16 22  1  0
 17 22  1  0
 15 23  1  0
 23 24  2  0
 23 25  1  0
 24 26  1  0
 25 27  2  0
 27 28  1  0
 26 29  2  0
 27 29  1  0
 28 30  1  0
 28 31  2  0
 30 32  1  0
 32 33  1  0
 33 34  1  0
 33 35  2  0
 35 36  1  0
 34 37  1  0
 36 37  2  0
 36 38  1  0
M  END
