mac-x0588-mac-x0396
     RDKit          3D

 24 27  0  0  0  0  0  0  0  0999 V2000
   -4.0790   14.5450    0.4510 N   0  0  2  0  0  0  0  0  0  0  0  0
   -3.5860   14.1480    1.7810 N   0  0  0  0  0  0  0  0  0  0  0  0
   -3.6280   13.5050   -0.2970 O   0  0  0  0  0  0  0  0  0  0  0  0
   -3.3090   15.7400   -0.0280 C   0  0  2  0  0  0  0  0  0  0  0  0
   -5.5480   14.6260    0.2660 C   0  0  0  0  0  0  0  0  0  0  0  0
   -3.6100   15.9430   -1.4660 N   0  0  0  0  0  0  0  0  0  0  0  0
   -1.8250   15.5640    0.2650 C   0  0  2  0  0  0  0  0  0  0  0  0
   -6.0990   14.8170   -1.0010 C   0  0  0  0  0  0  0  0  0  0  0  0
   -6.4340   14.5140    1.3270 C   0  0  0  0  0  0  0  0  0  0  0  0
   -3.1060   14.8920   -2.2780 C   0  0  0  0  0  0  0  0  0  0  0  0
   -0.9970   15.4220   -1.0310 C   0  0  2  0  0  0  0  0  0  0  0  0
   -1.3500   14.5480    1.1790 N   0  0  0  0  0  0  0  0  0  0  0  0
   -7.4270   14.8960   -1.2480 N   0  0  0  0  0  0  0  0  0  0  0  0
   -7.8000   14.5900    1.1090 C   0  0  0  0  0  0  0  0  0  0  0  0
   -1.6640   14.8250   -2.1880 N   0  0  0  0  0  0  0  0  0  0  0  0
    0.0910   14.5480   -0.6070 N   0  0  0  0  0  0  0  0  0  0  0  0
    0.0270   14.4710    0.8340 C   0  0  0  0  0  0  0  0  0  0  0  0
   -8.2430   14.7790   -0.1840 C   0  0  0  0  0  0  0  0  0  0  0  0
   -1.0060   15.0870   -3.4650 C   0  0  0  0  0  0  0  0  0  0  0  0
   -0.4630   16.4910   -3.7900 C   0  0  2  0  0  0  0  0  0  0  0  0
   -1.5110   17.3390   -4.3650 O   0  0  0  0  0  0  0  0  0  0  0  0
    0.6660   16.4760   -4.8080 C   0  0  0  0  0  0  0  0  0  0  0  0
    0.5820   17.8620   -5.3820 C   0  0  0  0  0  0  0  0  0  0  0  0
   -0.9140   18.1160   -5.4130 C   0  0  0  0  0  0  0  0  0  0  0  0
  1  2  1  1
  1  3  1  0
  1  4  1  0
  1  5  1  0
  4  6  1  6
  4  7  1  0
  5  8  2  0
  5  9  1  0
  6 10  1  0
  7 11  1  0
  7 12  1  1
  8 13  1  0
  9 14  2  0
 10 15  1  0
 11 15  1  0
 11 16  1  1
 12 17  1  0
 16 17  1  0
 13 18  2  0
 14 18  1  0
 15 19  1  0
 20 19  1  6
 20 21  1  0
 20 22  1  0
 22 23  1  0
 21 24  1  0
 23 24  1  0
M  CHG  2   1   1   3  -1
M  END
