mac-x0433-mac-x0385
     RDKit          3D

 16 17  0  0  0  0  0  0  0  0999 V2000
   -8.0030   14.5560    1.5220 C   0  0  0  0  0  0  0  0  0  0  0  0
   -6.9280   14.7280    0.5020 C   0  0  0  0  0  0  0  0  0  0  0  0
   -7.3360   14.8530   -0.7850 N   0  0  0  0  0  0  0  0  0  0  0  0
   -5.5900   14.7560    0.8890 C   0  0  0  0  0  0  0  0  0  0  0  0
   -4.7040   14.9170   -0.1390 C   0  0  0  0  0  0  0  0  0  0  0  0
   -6.3840   15.0040   -1.6920 C   0  0  0  0  0  0  0  0  0  0  0  0
   -6.6990   15.1210   -3.0290 N   0  0  0  0  0  0  0  0  0  0  0  0
   -5.1200   15.0390   -1.4010 N   0  0  0  0  0  0  0  0  0  0  0  0
   -3.2550   14.9800   -0.1800 C   0  0  0  0  0  0  0  0  0  0  0  0
   -2.8340   15.3620   -1.4110 C   0  0  0  0  0  0  0  0  0  0  0  0
   -2.4050   14.6790    0.8300 N   0  0  0  0  0  0  0  0  0  0  0  0
   -3.7880   15.6580   -2.4970 C   0  0  0  0  0  0  0  0  0  0  0  0
   -1.1040   14.7870    0.4790 C   0  0  0  0  0  0  0  0  0  0  0  0
   -1.5130   15.4530   -1.6290 C   0  0  0  0  0  0  0  0  0  0  0  0
   -0.0650   14.4380    1.4460 C   0  0  0  0  0  0  0  0  0  0  0  0
   -0.6200   15.1700   -0.7040 N   0  0  0  0  0  0  0  0  0  0  0  0
  1  2  1  0
  2  3  2  0
  2  4  1  0
  4  5  2  0
  3  6  1  0
  6  7  1  0
  5  8  1  0
  6  8  2  0
  5  9  1  0
  9 10  2  0
  9 11  1  0
 10 12  1  0
 11 13  2  0
 10 14  1  0
 13 15  1  0
 13 16  1  0
 14 16  2  0
M  END
