mac-x0411-mac-x0124
     RDKit          3D

 25 27  0  0  0  0  0  0  0  0999 V2000
    0.7440    8.9780   -7.8500 Cl  0  0  0  0  0  0  0  0  0  0  0  0
   -0.5660    9.5700   -6.8840 C   0  0  0  0  0  0  0  0  0  0  0  0
   -0.5060   10.7690   -6.1300 C   0  0  0  0  0  0  0  0  0  0  0  0
   -1.7220    8.7850   -6.8900 C   0  0  0  0  0  0  0  0  0  0  0  0
    0.6710   11.5090   -6.1500 O   0  0  0  0  0  0  0  0  0  0  0  0
   -1.6570   11.1410   -5.4030 C   0  0  0  0  0  0  0  0  0  0  0  0
   -2.8380    9.1700   -6.1600 C   0  0  0  0  0  0  0  0  0  0  0  0
   -1.7710   12.5720   -4.4480 Cl  0  0  0  0  0  0  0  0  0  0  0  0
    0.9010   12.4620   -5.0860 C   0  0  0  0  0  0  0  0  0  0  0  0
   -2.8060   10.3430   -5.4220 C   0  0  0  0  0  0  0  0  0  0  0  0
    0.7340   11.8640   -3.6850 C   0  0  0  0  0  0  0  0  0  0  0  0
    1.1780   12.6780   -2.6710 O   0  0  0  0  0  0  0  0  0  0  0  0
    0.2630   10.7530   -3.4700 O   0  0  0  0  0  0  0  0  0  0  0  0
    1.2300   14.1160   -2.8050 C   0  0  0  0  0  0  0  0  0  0  0  0
   -0.0850   14.7370   -3.3030 C   0  0  0  0  0  0  0  0  0  0  0  0
   -1.2080   14.8050   -2.3520 N   0  0  0  0  0  0  0  0  0  0  0  0
   -2.5250   14.9280   -2.7480 C   0  0  0  0  0  0  0  0  0  0  0  0
   -1.1530   14.7710   -0.9740 C   0  0  0  0  0  0  0  0  0  0  0  0
   -3.3160   14.9790   -1.6190 C   0  0  0  0  0  0  0  0  0  0  0  0
   -2.4600   14.8810   -0.4870 C   0  0  0  0  0  0  0  0  0  0  0  0
   -0.0490   14.6610   -0.2250 N   0  0  0  0  0  0  0  0  0  0  0  0
   -2.6260   14.8760    0.9030 C   0  0  0  0  0  0  0  0  0  0  0  0
   -0.3430   14.6590    1.0900 C   0  0  0  0  0  0  0  0  0  0  0  0
   -3.8620   15.0010    1.5150 N   0  0  0  0  0  0  0  0  0  0  0  0
   -1.5460   14.7530    1.6890 N   0  0  0  0  0  0  0  0  0  0  0  0
  1  2  1  0
  2  3  2  0
  2  4  1  0
  3  5  1  0
  3  6  1  0
  4  7  2  0
  6  8  1  0
  5  9  1  0
  6 10  2  0
  7 10  1  0
  9 11  1  0
 11 12  1  0
 11 13  2  0
 12 14  1  0
 14 15  1  0
 15 16  1  0
 16 17  1  0
 16 18  1  0
 17 19  2  0
 18 20  2  0
 19 20  1  0
 18 21  1  0
 20 22  1  0
 21 23  2  0
 22 24  1  0
 22 25  2  0
 23 25  1  0
M  END
