mac-x0301-mac-x0190
     RDKit          3D

 21 24  0  0  0  0  0  0  0  0999 V2000
    0.6860   14.7000   -3.0770 O   0  0  0  0  0  0  0  0  0  0  0  0
   -0.6320   14.6890   -3.3270 C   0  0  0  0  0  0  0  0  0  0  0  0
   -1.0840   14.6340   -4.4590 O   0  0  0  0  0  0  0  0  0  0  0  0
   -1.5120   14.7320   -2.1340 C   0  0  0  0  0  0  0  0  0  0  0  0
   -1.0850   14.7200   -0.8110 C   0  0  0  0  0  0  0  0  0  0  0  0
   -2.8820   14.7810   -2.3680 C   0  0  0  0  0  0  0  0  0  0  0  0
   -1.9740   14.7500    0.2500 C   0  0  0  0  0  0  0  0  0  0  0  0
   -3.8010   14.7950   -1.3170 C   0  0  0  0  0  0  0  0  0  0  0  0
    0.2010   14.6750   -0.3870 O   0  0  0  0  0  0  0  0  0  0  0  0
   -3.3460   14.7770    0.0270 C   0  0  0  0  0  0  0  0  0  0  0  0
   -1.3370   14.7360    1.4710 O   0  0  0  0  0  0  0  0  0  0  0  0
    0.0080   14.5240    1.0340 C   0  0  0  0  0  0  0  0  0  0  0  0
   -5.1640   14.8100   -1.6170 C   0  0  0  0  0  0  0  0  0  0  0  0
   -6.0430   14.7750   -0.5510 C   0  0  0  0  0  0  0  0  0  0  0  0
   -4.2630   14.7720    1.0710 C   0  0  0  0  0  0  0  0  0  0  0  0
   -7.4060   14.7470   -0.4960 N   0  0  0  0  0  0  0  0  0  0  0  0
   -5.6320   14.7550    0.7710 C   0  0  0  0  0  0  0  0  0  0  0  0
   -7.7740   14.7000    0.8230 C   0  0  0  0  0  0  0  0  0  0  0  0
   -6.7210   14.7130    1.6100 N   0  0  0  0  0  0  0  0  0  0  0  0
   -9.1930   14.6440    1.2390 C   0  0  0  0  0  0  0  0  0  0  0  0
   -9.2360   15.0310    2.6050 O   0  0  0  0  0  0  0  0  0  0  0  0
  1  2  1  0
  2  3  2  0
  2  4  1  0
  4  5  2  0
  4  6  1  0
  5  7  1  0
  6  8  2  0
  5  9  1  0
  7 10  2  0
  8 10  1  0
  7 11  1  0
  9 12  1  0
 11 12  1  0
  8 13  1  0
 13 14  2  0
 10 15  1  0
 14 16  1  0
 14 17  1  0
 15 17  2  0
 16 18  1  0
 17 19  1  0
 18 19  2  0
 18 20  1  0
 20 21  1  0
M  END
