mac-x0584-diamond-x0626_0_A
     RDKit          3D

 24 27  0  0  0  0  0  0  0  0999 V2000
   -5.3770   14.7430    1.0050 N   0  0  0  0  0  0  0  0  0  0  0  0
   -6.6270   14.5990    0.5490 C   0  0  0  0  0  0  0  0  0  0  0  0
   -6.7890   14.7040   -0.6690 O   0  0  0  0  0  0  0  0  0  0  0  0
   -4.2210   14.8050    0.2890 C   0  0  0  0  0  0  0  0  0  0  0  0
   -7.7500   14.3320    1.5060 C   0  0  0  0  0  0  0  0  0  0  0  0
   -3.0930   14.6200    0.9760 N   0  0  0  0  0  0  0  0  0  0  0  0
   -3.8020   15.0040   -1.0170 C   0  0  0  0  0  0  0  0  0  0  0  0
   -9.0820   14.7430    0.9130 C   0  0  0  0  0  0  0  0  0  0  0  0
   -2.9220   14.3570    2.2820 C   0  0  0  0  0  0  0  0  0  0  0  0
   -2.0120   14.6930    0.2860 C   0  0  0  0  0  0  0  0  0  0  0  0
   -2.3660   14.9170   -0.9960 C   0  0  0  0  0  0  0  0  0  0  0  0
   -0.8200   14.5530    0.8500 N   0  0  0  0  0  0  0  0  0  0  0  0
   -1.2720   14.9920   -1.8480 C   0  0  0  0  0  0  0  0  0  0  0  0
   -1.2650   15.2030   -3.1710 N   0  0  0  0  0  0  0  0  0  0  0  0
   -0.0420   14.8650   -1.3410 N   0  0  0  0  0  0  0  0  0  0  0  0
    0.1120   14.6660   -0.0600 C   0  0  0  0  0  0  0  0  0  0  0  0
   -0.0770   14.7290   -3.8440 C   0  0  1  0  0  0  0  0  0  0  0  0
   -2.4690   14.8510   -3.8800 C   0  0  0  0  0  0  0  0  0  0  0  0
    0.2690   13.3150   -3.3770 C   0  0  0  0  0  0  0  0  0  0  0  0
   -0.5110   14.7610   -5.3030 C   0  0  0  0  0  0  0  0  0  0  0  0
   -2.0200   15.0660   -5.3080 C   0  0  0  0  0  0  0  0  0  0  0  0
    1.2290   12.4760   -4.2590 C   0  0  0  0  0  0  0  0  0  0  0  0
   -0.8020   12.2310   -3.6670 C   0  0  0  0  0  0  0  0  0  0  0  0
    0.3510   11.2600   -3.8870 C   0  0  0  0  0  0  0  0  0  0  0  0
  1  2  1  0
  2  3  2  0
  1  4  1  0
  2  5  1  0
  4  6  1  0
  4  7  2  0
  5  8  1  0
  6  9  1  0
  6 10  1  0
  7 11  1  0
 10 11  2  0
 10 12  1  0
 11 13  1  0
 13 14  1  0
 13 15  2  0
 12 16  2  0
 15 16  1  0
 14 17  1  0
 14 18  1  0
 17 19  1  1
 17 20  1  0
 18 21  1  0
 20 21  1  0
 19 22  1  0
 19 23  1  0
 22 24  1  0
 23 24  1  0
M  END
