mac-x0123-mac-x0354
     RDKit          3D

 31 35  0  0  0  0  0  0  0  0999 V2000
   -3.6860   14.9960    1.7270 N   0  0  0  0  0  0  0  0  0  0  0  0
   -4.6880   14.8160    0.7930 C   0  0  0  0  0  0  0  0  0  0  0  0
   -6.0000   14.6310    1.0570 C   0  0  0  0  0  0  0  0  0  0  0  0
   -4.2990   14.8010   -0.5570 N   0  0  0  0  0  0  0  0  0  0  0  0
   -5.2150   14.6420   -1.5980 C   0  0  0  0  0  0  0  0  0  0  0  0
   -6.9090   14.4880   -0.1120 C   0  0  0  0  0  0  0  0  0  0  0  0
   -6.8200   14.5310    2.2990 C   0  0  0  0  0  0  0  0  0  0  0  0
   -3.0400   14.9130   -1.0470 N   0  0  0  0  0  0  0  0  0  0  0  0
   -6.5640   14.4960   -1.3670 N   0  0  0  0  0  0  0  0  0  0  0  0
   -8.3300   14.3360    0.3490 C   0  0  0  0  0  0  0  0  0  0  0  0
   -8.2630   14.7070    1.8340 C   0  0  0  0  0  0  0  0  0  0  0  0
   -4.5500   14.6530   -2.7420 N   0  0  0  0  0  0  0  0  0  0  0  0
   -3.2320   14.8120   -2.3590 C   0  0  0  0  0  0  0  0  0  0  0  0
   -2.0890   14.8630   -3.3310 C   0  0  0  0  0  0  0  0  0  0  0  0
   -0.6710   14.9390   -2.7040 C   0  0  0  0  0  0  0  0  0  0  0  0
    0.3950   13.9650   -3.2280 C   0  0  0  0  0  0  0  0  0  0  0  0
    0.3000   12.6810   -2.5430 N   0  0  0  0  0  0  0  0  0  0  0  0
    0.4880   11.6360   -3.2420 C   0  0  0  0  0  0  0  0  0  0  0  0
    0.4000   10.3730   -2.7130 O   0  0  0  0  0  0  0  0  0  0  0  0
    0.8100   11.7750   -4.6650 C   0  0  0  0  0  0  0  0  0  0  0  0
    1.8050   12.5900   -5.2670 C   0  0  0  0  0  0  0  0  0  0  0  0
    0.2280   11.1350   -5.7590 C   0  0  0  0  0  0  0  0  0  0  0  0
    0.8820   11.5790   -6.8650 N   0  0  0  0  0  0  0  0  0  0  0  0
    1.8460   12.4670   -6.5890 N   0  0  0  0  0  0  0  0  0  0  0  0
   -0.8410   10.1660   -5.8740 C   0  0  0  0  0  0  0  0  0  0  0  0
    0.6000   11.1580   -8.2250 C   0  0  0  0  0  0  0  0  0  0  0  0
   -0.6140    8.9270   -6.4840 C   0  0  0  0  0  0  0  0  0  0  0  0
   -2.1050   10.4710   -5.3760 C   0  0  0  0  0  0  0  0  0  0  0  0
   -1.6470    8.0000   -6.5910 C   0  0  0  0  0  0  0  0  0  0  0  0
   -3.1390    9.5450   -5.4830 C   0  0  0  0  0  0  0  0  0  0  0  0
   -2.9090    8.3120   -6.0900 C   0  0  0  0  0  0  0  0  0  0  0  0
  1  2  1  0
  2  3  2  0
  2  4  1  0
  4  5  1  0
  3  6  1  0
  3  7  1  0
  4  8  1  0
  5  9  1  0
  6  9  2  0
  6 10  1  0
  7 11  1  0
 10 11  1  0
  5 12  2  0
  8 13  2  0
 12 13  1  0
 13 14  1  0
 14 15  1  0
 15 16  1  0
 16 17  1  0
 17 18  2  3
 18 19  1  0
 18 20  1  0
 20 21  1  0
 20 22  2  0
 22 23  1  0
 21 24  2  0
 23 24  1  0
 22 25  1  0
 23 26  1  0
 25 27  2  0
 25 28  1  0
 27 29  1  0
 28 30  2  0
 29 31  2  0
 30 31  1  0
M  END
