mac-x0301-mac-x0212
     RDKit          3D

 18 20  0  0  0  0  0  0  0  0999 V2000
    0.4010   14.3240   -3.0750 O   0  0  0  0  0  0  0  0  0  0  0  0
   -0.9050   14.5540   -3.0560 C   0  0  0  0  0  0  0  0  0  0  0  0
   -1.5870   14.6840   -4.1410 N   0  0  0  0  0  0  0  0  0  0  0  0
   -1.6080   14.6660   -1.7950 C   0  0  0  0  0  0  0  0  0  0  0  0
   -2.9750   14.9380   -3.6330 C   0  0  0  0  0  0  0  0  0  0  0  0
   -1.2400   14.5790   -0.4990 C   0  0  0  0  0  0  0  0  0  0  0  0
   -2.9190   14.9130   -2.1410 C   0  0  0  0  0  0  0  0  0  0  0  0
   -2.2000   14.7440    0.5070 C   0  0  0  0  0  0  0  0  0  0  0  0
   -3.9210   15.0840   -1.1700 C   0  0  0  0  0  0  0  0  0  0  0  0
   -0.0010   14.3410   -0.0410 O   0  0  0  0  0  0  0  0  0  0  0  0
   -3.5830   14.9960    0.1990 C   0  0  0  0  0  0  0  0  0  0  0  0
   -1.5980   14.6240    1.7440 O   0  0  0  0  0  0  0  0  0  0  0  0
   -0.2440   14.2570    1.3690 C   0  0  0  0  0  0  0  0  0  0  0  0
   -4.6520   15.1610    1.2110 N   0  0  0  0  0  0  0  0  0  0  0  0
   -6.2310   14.5100    0.8980 S   0  0  0  0  0  0  0  0  0  0  0  0
   -5.9370   12.7790    1.2000 C   0  0  0  0  0  0  0  0  0  0  0  0
   -7.1080   14.9540    1.9660 O   0  0  0  0  0  0  0  0  0  0  0  0
   -6.6480   14.6800   -0.4780 O   0  0  0  0  0  0  0  0  0  0  0  0
  1  2  1  0
  2  3  2  0
  2  4  1  0
  3  5  1  0
  4  6  1  0
  4  7  2  0
  5  7  1  0
  6  8  2  0
  7  9  1  0
  6 10  1  0
  8 11  1  0
  9 11  2  0
  8 12  1  0
 10 13  1  0
 12 13  1  0
 11 14  1  0
 15 14  1  0
 15 16  1  0
 15 17  2  0
 15 18  2  0
M  END
