mac-x0228-diamond-x0895_0_A
     RDKit          3D

 19 21  0  0  0  0  0  0  0  0999 V2000
   -1.3880   14.6950   -2.2360 O   0  0  0  0  0  0  0  0  0  0  0  0
   -2.3280   14.9430   -3.1830 C   0  0  0  0  0  0  0  0  0  0  0  0
   -2.0330   15.3650   -4.2830 O   0  0  0  0  0  0  0  0  0  0  0  0
   -3.7440   14.6370   -2.7850 C   0  0  0  0  0  0  0  0  0  0  0  0
   -4.4150   15.1220   -1.6760 C   0  0  0  0  0  0  0  0  0  0  0  0
   -4.4920   13.7700   -3.5980 C   0  0  0  0  0  0  0  0  0  0  0  0
   -4.0760   15.9550   -0.7320 N   0  0  0  0  0  0  0  0  0  0  0  0
   -5.6680   14.7580   -1.3740 C   0  0  0  0  0  0  0  0  0  0  0  0
   -5.8230   13.4190   -3.2700 C   0  0  0  0  0  0  0  0  0  0  0  0
   -6.3840   13.9300   -2.1270 C   0  0  0  0  0  0  0  0  0  0  0  0
   -6.4800   15.1640   -0.2290 C   0  0  0  0  0  0  0  0  0  0  0  0
   -3.4660   15.5010    0.1950 C   0  0  0  0  0  0  0  0  0  0  0  0
   -7.6410   13.7060   -1.6090 O   0  0  0  0  0  0  0  0  0  0  0  0
   -7.4350   14.0020   -0.2090 C   0  0  0  0  0  0  0  0  0  0  0  0
   -3.2710   16.2360    1.2740 N   0  0  0  0  0  0  0  0  0  0  0  0
   -2.9470   14.2690    0.3720 N   0  0  0  0  0  0  0  0  0  0  0  0
   -3.5220   15.2280    2.2380 C   0  0  0  0  0  0  0  0  0  0  0  0
   -2.4380   14.4180    1.6010 C   0  0  0  0  0  0  0  0  0  0  0  0
   -1.3910   14.0660    2.0680 O   0  0  0  0  0  0  0  0  0  0  0  0
  1  2  1  0
  2  3  2  0
  2  4  1  0
  4  5  2  0
  4  6  1  0
  5  7  1  0
  5  8  1  0
  6  9  2  0
  8 10  2  0
  9 10  1  0
  8 11  1  0
  7 12  2  3
 10 13  1  0
 11 14  1  0
 13 14  1  0
 12 15  1  0
 12 16  1  0
 15 17  1  0
 16 18  1  0
 17 18  1  0
 18 19  2  0
M  END
