mac-x0226-diamond-x0628_0_A
     RDKit          3D

 23 25  0  0  0  0  0  0  0  0999 V2000
    0.4800   10.7220   -2.1150 O   0  0  0  0  0  0  0  0  0  0  0  0
    0.2300   11.8530   -2.8280 C   0  0  0  0  0  0  0  0  0  0  0  0
   -0.3110   12.9190   -2.4060 N   0  0  0  0  0  0  0  0  0  0  0  0
    0.6240   11.8250   -4.2110 C   0  0  0  0  0  0  0  0  0  0  0  0
   -0.5180   14.0860   -3.2780 C   0  0  0  0  0  0  0  0  0  0  0  0
    1.5710   12.6150   -4.9100 C   0  0  0  0  0  0  0  0  0  0  0  0
    0.1310   10.9800   -5.1750 C   0  0  0  0  0  0  0  0  0  0  0  0
   -0.8170   13.7810   -4.7620 C   0  0  0  0  0  0  0  0  0  0  0  0
    1.6680   12.2900   -6.2020 N   0  0  0  0  0  0  0  0  0  0  0  0
    0.7770   11.2710   -6.3590 N   0  0  0  0  0  0  0  0  0  0  0  0
    0.5920   10.6170   -7.6100 C   0  0  0  0  0  0  0  0  0  0  0  0
   -1.6210   12.6120   -5.1190 N   0  0  0  0  0  0  0  0  0  0  0  0
   -0.4730    9.7260   -7.7530 C   0  0  0  0  0  0  0  0  0  0  0  0
    1.4460   10.8310   -8.6890 C   0  0  0  0  0  0  0  0  0  0  0  0
   -1.6540   12.1660   -6.4000 N   0  0  0  0  0  0  0  0  0  0  0  0
   -2.4170   11.8220   -4.3190 C   0  0  0  0  0  0  0  0  0  0  0  0
   -2.6260   12.0090   -2.8650 C   0  0  0  0  0  0  0  0  0  0  0  0
   -0.6900    9.0660   -8.9660 C   0  0  0  0  0  0  0  0  0  0  0  0
    1.2320   10.1730   -9.9020 C   0  0  0  0  0  0  0  0  0  0  0  0
   -2.9670   10.8740   -5.0540 N   0  0  0  0  0  0  0  0  0  0  0  0
   -2.4830   11.1140   -6.3060 C   0  0  0  0  0  0  0  0  0  0  0  0
   -2.8590   10.2720   -7.4630 C   0  0  0  0  0  0  0  0  0  0  0  0
    0.1630    9.2920  -10.0420 C   0  0  0  0  0  0  0  0  0  0  0  0
  1  2  1  0
  2  3  2  3
  2  4  1  0
  3  5  1  0
  4  6  1  0
  4  7  2  0
  5  8  1  0
  6  9  2  0
  7 10  1  0
  9 10  1  0
 10 11  1  0
  8 12  1  0
 11 13  2  0
 11 14  1  0
 12 15  1  0
 12 16  1  0
 16 17  1  0
 13 18  1  0
 14 19  2  0
 16 20  2  0
 15 21  2  0
 20 21  1  0
 21 22  1  0
 18 23  2  0
 19 23  1  0
M  END
