mac-x0555-diamond-x1018_0_A
     RDKit          3D

 11 12  0  0  0  0  0  0  0  0999 V2000
   -7.4950   14.2920    2.8820 N   0  0  0  0  0  0  0  0  0  0  0  0
   -6.9800   14.5080    1.6030 C   0  0  0  0  0  0  0  0  0  0  0  0
   -7.7800   14.5930    0.4690 C   0  0  0  0  0  0  0  0  0  0  0  0
   -5.6110   14.6520    1.4160 C   0  0  0  0  0  0  0  0  0  0  0  0
   -5.0880   14.8690    0.1380 C   0  0  0  0  0  0  0  0  0  0  0  0
   -7.3180   14.8050   -0.7870 N   0  0  0  0  0  0  0  0  0  0  0  0
   -5.9920   14.9400   -0.9430 C   0  0  0  0  0  0  0  0  0  0  0  0
   -3.7130   15.0110   -0.0790 C   0  0  0  0  0  0  0  0  0  0  0  0
   -5.4810   15.1540   -2.2110 C   0  0  0  0  0  0  0  0  0  0  0  0
   -3.2310   15.2180   -1.3650 C   0  0  0  0  0  0  0  0  0  0  0  0
   -4.1130   15.2930   -2.4330 C   0  0  0  0  0  0  0  0  0  0  0  0
  1  2  1  0
  2  3  2  0
  2  4  1  0
  4  5  2  0
  3  6  1  0
  5  7  1  0
  6  7  2  0
  5  8  1  0
  7  9  1  0
  8 10  2  0
  9 11  2  0
 10 11  1  0
M  END
