mac-x0379-mac-x0387
     RDKit          3D

 15 16  0  0  0  0  0  0  0  0999 V2000
   -5.0000   15.1290    0.4540 C   0  0  0  0  0  0  0  0  0  0  0  0
   -4.2070   15.1270   -0.7990 C   0  0  0  0  0  0  0  0  0  0  0  0
   -4.6690   15.5230   -1.9840 N   0  0  0  0  0  0  0  0  0  0  0  0
   -2.6830   14.6590   -1.0870 S   0  0  0  0  0  0  0  0  0  0  0  0
   -3.6700   15.4140   -3.0210 C   0  0  0  0  0  0  0  0  0  0  0  0
   -2.4160   14.9210   -2.6610 C   0  0  0  0  0  0  0  0  0  0  0  0
   -2.2820   14.1730    0.5160 C   0  0  2  0  0  0  0  0  0  0  0  0
   -1.0380   14.0460   -0.9390 C   0  0  0  0  0  0  0  0  0  0  0  0
   -1.2120   14.6990   -3.4120 C   0  0  0  0  0  0  0  0  0  0  0  0
   -3.4610   13.9860    1.3030 N   0  0  0  0  0  0  0  0  0  0  0  0
   -0.1070   14.2690   -0.0150 C   0  0  0  0  0  0  0  0  0  0  0  0
   -1.6950   15.1840    1.3370 N   0  0  0  0  0  0  0  0  0  0  0  0
   -1.0870   14.3020   -4.5570 O   0  0  0  0  0  0  0  0  0  0  0  0
   -0.1070   15.0110   -2.6940 O   0  0  0  0  0  0  0  0  0  0  0  0
   -0.2920   15.1020    1.1480 C   0  0  0  0  0  0  0  0  0  0  0  0
  1  2  1  0
  2  3  2  0
  2  4  1  0
  3  5  1  0
  4  6  1  0
  5  6  2  0
  4  7  1  0
  4  8  1  0
  6  9  1  0
  7 10  1  1
  8 11  2  0
  7 12  1  0
  9 13  2  0
  9 14  1  0
 11 15  1  0
 12 15  1  0
M  END
