mac-x0139-diamond-x0967_0_A
     RDKit          3D

 21 23  0  0  0  0  0  0  0  0999 V2000
   -2.2160   14.8620   -3.1800 C   0  0  0  0  0  0  0  0  0  0  0  0
   -1.0640   14.3020   -2.4490 N   0  0  0  0  0  0  0  0  0  0  0  0
    0.2040   14.8260   -3.0150 C   0  0  0  0  0  0  0  0  0  0  0  0
   -1.1940   14.5790   -1.0670 C   0  0  0  0  0  0  0  0  0  0  0  0
    0.8120   13.8020   -3.9630 C   0  0  0  0  0  0  0  0  0  0  0  0
   -2.4360   14.6730   -0.4990 C   0  0  0  0  0  0  0  0  0  0  0  0
   -0.1070   14.7540   -0.3170 N   0  0  0  0  0  0  0  0  0  0  0  0
    1.0720   12.5260   -3.2150 C   0  0  0  0  0  0  0  0  0  0  0  0
   -2.5430   14.9930    0.8320 C   0  0  0  0  0  0  0  0  0  0  0  0
   -0.3070   15.0240    0.9790 C   0  0  0  0  0  0  0  0  0  0  0  0
   -3.7600   14.4810   -1.0940 C   0  0  0  0  0  0  0  0  0  0  0  0
    1.6850   12.4500   -2.1680 O   0  0  0  0  0  0  0  0  0  0  0  0
    0.5510   11.4450   -3.8310 O   0  0  0  0  0  0  0  0  0  0  0  0
   -1.4900   15.1620    1.6110 N   0  0  0  0  0  0  0  0  0  0  0  0
   -3.9020   15.1340    1.2580 N   0  0  0  0  0  0  0  0  0  0  0  0
   -4.7150   14.6790    0.1110 C   0  0  1  0  0  0  0  0  0  0  0  0
   -5.7580   15.6240   -0.5750 C   0  0  0  0  0  0  0  0  0  0  0  0
   -5.3790   13.4670    0.7240 C   0  0  0  0  0  0  0  0  0  0  0  0
   -7.2070   15.2600   -0.5200 N   0  0  0  0  0  0  0  0  0  0  0  0
   -6.6920   13.4260    0.9960 C   0  0  0  0  0  0  0  0  0  0  0  0
   -7.6050   14.5530    0.6980 C   0  0  0  0  0  0  0  0  0  0  0  0
  1  2  1  0
  2  3  1  0
  2  4  1  0
  3  5  1  0
  4  6  2  0
  4  7  1  0
  5  8  1  0
  6  9  1  0
  7 10  2  0
  6 11  1  0
  8 12  2  0
  8 13  1  0
  9 14  2  0
 10 14  1  0
  9 15  1  0
 16 11  1  6
 15 16  1  0
 16 17  1  0
 16 18  1  0
 17 19  1  0
 18 20  2  0
 19 21  1  0
 20 21  1  0
M  END
