mac-x0138-diamond-x0689_0_A
     RDKit          3D

 13 14  0  0  0  0  0  0  0  0999 V2000
   -1.0670   14.7130   -3.3980 C   0  0  0  0  0  0  0  0  0  0  0  0
   -2.0890   14.8580   -2.3980 N   0  0  0  0  0  0  0  0  0  0  0  0
   -3.4110   15.1310   -2.6200 C   0  0  0  0  0  0  0  0  0  0  0  0
   -1.9020   14.7480   -1.0440 C   0  0  0  0  0  0  0  0  0  0  0  0
   -4.0900   15.2090   -1.4990 N   0  0  0  0  0  0  0  0  0  0  0  0
   -3.1600   14.9720   -0.5110 C   0  0  0  0  0  0  0  0  0  0  0  0
   -0.7690   14.4860   -0.3660 N   0  0  0  0  0  0  0  0  0  0  0  0
   -3.2500   14.9210    0.8780 C   0  0  0  0  0  0  0  0  0  0  0  0
   -0.9860   14.4550    0.9630 C   0  0  0  0  0  0  0  0  0  0  0  0
   -4.4470   15.1300    1.5560 N   0  0  0  0  0  0  0  0  0  0  0  0
    0.0470   14.1810    1.8140 N   0  0  0  0  0  0  0  0  0  0  0  0
   -2.1330   14.6560    1.6010 N   0  0  0  0  0  0  0  0  0  0  0  0
   -4.3790   14.8230    2.9150 N   0  0  0  0  0  0  0  0  0  0  0  0
  1  2  1  0
  2  3  1  0
  2  4  1  0
  3  5  2  0
  4  6  2  0
  5  6  1  0
  4  7  1  0
  6  8  1  0
  7  9  2  0
  8 10  1  0
  9 11  1  0
  8 12  2  0
  9 12  1  0
 10 13  1  0
M  END
