mac-x0178-mac-x0371
     RDKit          3D

 17 18  0  0  0  0  0  0  0  0999 V2000
   -0.4030   18.2210   -6.4970 N   0  0  0  0  0  0  0  0  0  0  0  0
   -1.4770   17.3150   -5.6020 S   0  0  0  0  0  0  0  0  0  0  0  0
   -2.4930   16.9370   -6.5620 O   0  0  0  0  0  0  0  0  0  0  0  0
   -1.7930   18.1870   -4.5010 O   0  0  0  0  0  0  0  0  0  0  0  0
   -0.3740   15.8930   -5.1730 C   0  0  1  0  0  0  0  0  0  0  0  0
    0.6170   16.1200   -4.0250 C   0  0  0  0  0  0  0  0  0  0  0  0
   -1.1160   14.5170   -5.2070 C   0  0  0  0  0  0  0  0  0  0  0  0
    1.1100   14.8400   -3.3140 C   0  0  2  0  0  0  0  0  0  0  0  0
   -0.9810   13.5550   -4.0110 C   0  0  1  0  0  0  0  0  0  0  0  0
    2.1420   13.7800   -4.3470 Cl  0  0  0  0  0  0  0  0  0  0  0  0
   -2.6890   13.3470   -3.4420 Cl  0  0  0  0  0  0  0  0  0  0  0  0
   -0.4140   12.1470   -4.3270 C   0  0  0  0  0  0  0  0  0  0  0  0
   -0.0960   14.0830   -2.8690 C   0  0  1  0  0  0  0  0  0  0  0  0
    0.0830   12.8420   -2.0450 C   0  0  0  0  0  0  0  0  0  0  0  0
   -0.1160   11.6310   -2.9340 C   0  0  0  0  0  0  0  0  0  0  0  0
    0.3460   12.7970   -0.8750 O   0  0  0  0  0  0  0  0  0  0  0  0
   -0.0620   10.4610   -2.5590 O   0  0  0  0  0  0  0  0  0  0  0  0
  2  1  1  0
  2  3  2  0
  2  4  2  0
  5  2  1  1
  5  6  1  0
  5  7  1  0
  6  8  1  0
  7  9  1  0
  8 10  1  6
  9 11  1  1
  9 12  1  0
  8 13  1  0
  9 13  1  0
 13 14  1  6
 12 15  1  0
 14 15  1  0
 14 16  2  0
 15 17  2  0
M  END
