mac-x0137-mac-x0433
     RDKit          3D

 24 27  0  0  0  0  0  0  0  0999 V2000
   -2.4290   13.1450   -3.7900 F   0  0  0  0  0  0  0  0  0  0  0  0
   -1.2450   13.5300   -4.3620 C   0  0  2  0  0  0  0  0  0  0  0  0
   -0.3470   12.2950   -4.3930 C   0  0  0  0  0  0  0  0  0  0  0  0
   -0.6660   14.7700   -3.6030 C   0  0  0  0  0  0  0  0  0  0  0  0
    0.2340   14.4780   -2.4360 N   0  0  0  0  0  0  0  0  0  0  0  0
    0.2440   12.0560   -3.0150 C   0  0  0  0  0  0  0  0  0  0  0  0
    1.0670   13.2720   -2.5800 C   0  0  0  0  0  0  0  0  0  0  0  0
   -0.3650   14.5480   -1.1440 C   0  0  0  0  0  0  0  0  0  0  0  0
    0.2940   14.4810    0.0220 N   0  0  0  0  0  0  0  0  0  0  0  0
   -1.7030   14.6790   -1.0660 C   0  0  0  0  0  0  0  0  0  0  0  0
   -0.4070   14.5320    1.1900 C   0  0  0  0  0  0  0  0  0  0  0  0
   -2.3790   14.7160    0.1660 C   0  0  0  0  0  0  0  0  0  0  0  0
   -2.5820   14.7880   -2.1200 C   0  0  0  0  0  0  0  0  0  0  0  0
   -1.7430   14.6430    1.3750 N   0  0  0  0  0  0  0  0  0  0  0  0
   -3.7170   14.8140   -0.2730 N   0  0  0  0  0  0  0  0  0  0  0  0
   -3.7620   14.8680   -1.6210 C   0  0  0  0  0  0  0  0  0  0  0  0
   -5.0390   14.8680    0.0110 C   0  0  0  0  0  0  0  0  0  0  0  0
   -5.5000   15.0420   -1.2200 N   0  0  0  0  0  0  0  0  0  0  0  0
   -5.8350   14.7610    1.0920 C   0  0  0  0  0  0  0  0  0  0  0  0
   -6.7460   15.1050   -1.4650 C   0  0  0  0  0  0  0  0  0  0  0  0
   -7.1900   14.8340    0.7550 C   0  0  0  0  0  0  0  0  0  0  0  0
   -8.2240   14.7190    1.8190 C   0  0  0  0  0  0  0  0  0  0  0  0
   -7.0740   15.2570   -2.7930 N   0  0  0  0  0  0  0  0  0  0  0  0
   -7.6560   15.0060   -0.5170 N   0  0  0  0  0  0  0  0  0  0  0  0
  2  1  1  1
  2  3  1  0
  2  4  1  0
  4  5  1  0
  3  6  1  0
  5  7  1  0
  6  7  1  0
  5  8  1  0
  8  9  2  0
  8 10  1  0
  9 11  1  0
 10 12  2  0
 10 13  1  0
 11 14  2  0
 12 14  1  0
 12 15  1  0
 13 16  2  0
 15 16  1  0
 15 17  1  0
 17 18  2  0
 17 19  1  0
 18 20  1  0
 19 21  2  0
 21 22  1  0
 20 23  1  0
 20 24  2  0
 21 24  1  0
M  END
