mac-x0510-mac-x0433
     RDKit          3D

 20 22  0  0  0  0  0  0  0  0999 V2000
   -4.8340   15.6090   -1.9400 O   0  0  0  0  0  0  0  0  0  0  0  0
   -3.6910   15.6930   -1.4990 C   0  0  0  0  0  0  0  0  0  0  0  0
   -2.5890   15.6690   -2.3150 N   0  0  0  0  0  0  0  0  0  0  0  0
   -3.4430   15.8280   -0.1530 N   0  0  0  0  0  0  0  0  0  0  0  0
   -2.2820   15.2850    0.3440 C   0  0  0  0  0  0  0  0  0  0  0  0
   -1.2950   15.7140   -1.8400 C   0  0  0  0  0  0  0  0  0  0  0  0
   -0.3640   16.1240   -2.5200 O   0  0  0  0  0  0  0  0  0  0  0  0
   -1.2090   15.2210   -0.4760 C   0  0  0  0  0  0  0  0  0  0  0  0
   -2.1050   14.7730    1.6600 N   0  0  0  0  0  0  0  0  0  0  0  0
   -3.5020   15.1770    1.8010 C   0  0  0  0  0  0  0  0  0  0  0  0
   -0.2190   14.6800    0.1650 N   0  0  0  0  0  0  0  0  0  0  0  0
   -0.7460   14.4450    1.3380 C   0  0  0  0  0  0  0  0  0  0  0  0
   -4.5070   14.2580    1.1320 C   0  0  0  0  0  0  0  0  0  0  0  0
   -4.0760   13.4170    0.1670 N   0  0  0  0  0  0  0  0  0  0  0  0
   -5.8380   14.2960    1.5110 C   0  0  0  0  0  0  0  0  0  0  0  0
   -4.9890   12.6260   -0.4090 C   0  0  0  0  0  0  0  0  0  0  0  0
   -6.6980   13.4380    0.8560 C   0  0  0  0  0  0  0  0  0  0  0  0
   -8.1520   13.4210    1.2100 C   0  0  0  0  0  0  0  0  0  0  0  0
   -4.5540   11.7710   -1.4000 N   0  0  0  0  0  0  0  0  0  0  0  0
   -6.2850   12.5990   -0.1070 N   0  0  0  0  0  0  0  0  0  0  0  0
  1  2  2  0
  2  3  1  0
  2  4  1  0
  4  5  1  0
  3  6  1  0
  6  7  2  0
  5  8  2  0
  6  8  1  0
  5  9  1  0
  9 10  1  0
  8 11  1  0
  9 12  1  0
 11 12  2  0
 10 13  1  0
 13 14  2  0
 13 15  1  0
 14 16  1  0
 15 17  2  0
 17 18  1  0
 16 19  1  0
 16 20  2  0
 17 20  1  0
M  END
