mac-x0326-mac-x0321
     RDKit          3D

 19 20  0  0  0  0  0  0  0  0999 V2000
   -5.8260   15.3280   -1.6930 Cl  0  0  0  0  0  0  0  0  0  0  0  0
   -4.1320   15.1030   -1.3690 C   0  0  0  0  0  0  0  0  0  0  0  0
   -3.1670   14.9870   -2.3790 C   0  0  0  0  0  0  0  0  0  0  0  0
   -3.6540   15.0310   -0.0500 C   0  0  0  0  0  0  0  0  0  0  0  0
   -4.6940   15.1660    1.3170 Cl  0  0  0  0  0  0  0  0  0  0  0  0
   -3.2120   15.0110   -3.8030 C   0  0  0  0  0  0  0  0  0  0  0  0
   -1.8450   14.8160   -2.1130 C   0  0  0  0  0  0  0  0  0  0  0  0
   -2.2830   14.8460    0.2460 C   0  0  0  0  0  0  0  0  0  0  0  0
   -2.2160   15.8110   -4.2080 O   0  0  0  0  0  0  0  0  0  0  0  0
   -3.9410   14.4220   -4.5510 O   0  0  0  0  0  0  0  0  0  0  0  0
   -0.9190   14.7170   -3.1120 N   0  0  0  0  0  0  0  0  0  0  0  0
   -1.3800   14.7420   -0.8310 C   0  0  0  0  0  0  0  0  0  0  0  0
    0.2700   14.5750   -2.6430 C   0  0  0  0  0  0  0  0  0  0  0  0
    0.3400   14.5310   -0.9210 S   0  0  0  0  0  0  0  0  0  0  0  0
    1.4390   14.4610   -3.5850 C   0  0  0  0  0  0  0  0  0  0  0  0
    1.3740   13.1150   -4.3010 C   0  0  0  0  0  0  0  0  0  0  0  0
    1.0710   12.0840   -3.2540 C   0  0  0  0  0  0  0  0  0  0  0  0
    0.3430   11.0460   -3.7090 O   0  0  0  0  0  0  0  0  0  0  0  0
    1.4370   12.1660   -2.1020 O   0  0  0  0  0  0  0  0  0  0  0  0
  1  2  1  0
  2  3  2  0
  2  4  1  0
  4  5  1  0
  3  6  1  0
  3  7  1  0
  4  8  2  0
  6  9  1  0
  6 10  2  0
  7 11  1  0
  7 12  2  0
  8 12  1  0
 11 13  2  0
 12 14  1  0
 13 14  1  0
 13 15  1  0
 15 16  1  0
 16 17  1  0
 17 18  1  0
 17 19  2  0
M  END
