mac-x0328-mac-x0346
     RDKit          3D

 13 13  0  0  0  0  0  0  0  0999 V2000
   -1.5580   14.7100   -3.8420 O   0  0  0  0  0  0  0  0  0  0  0  0
   -1.7510   14.7380   -2.4730 C   0  0  0  0  0  0  0  0  0  0  0  0
   -0.7540   14.6870   -1.7320 O   0  0  0  0  0  0  0  0  0  0  0  0
   -3.1260   14.8190   -1.9840 C   0  0  0  0  0  0  0  0  0  0  0  0
   -3.4260   14.7410   -0.6410 C   0  0  0  0  0  0  0  0  0  0  0  0
   -4.1760   14.9750   -2.8590 C   0  0  0  0  0  0  0  0  0  0  0  0
   -4.7440   14.8100   -0.1960 C   0  0  0  0  0  0  0  0  0  0  0  0
   -5.4820   15.0420   -2.4200 C   0  0  0  0  0  0  0  0  0  0  0  0
   -5.7720   14.9560   -1.0940 C   0  0  0  0  0  0  0  0  0  0  0  0
   -7.2020   15.0180   -0.6610 C   0  0  0  0  0  0  0  0  0  0  0  0
   -7.5670   14.6900    0.5620 N   0  0  0  0  0  0  0  0  0  0  0  0
   -7.9000   15.3880   -1.6490 O   0  0  0  0  0  0  0  0  0  0  0  0
   -7.8980   14.3790    1.7290 O   0  0  0  0  0  0  0  0  0  0  0  0
  1  2  1  0
  2  3  2  0
  2  4  1  0
  4  5  2  0
  4  6  1  0
  5  7  1  0
  6  8  2  0
  7  9  2  0
  8  9  1  0
  9 10  1  0
 10 11  1  0
 10 12  2  0
 11 13  1  0
M  END
