mac-x0212-mac-x0439
     RDKit          3D

 28 30  0  0  0  0  0  0  0  0999 V2000
   -6.5170   12.7580    1.4730 C   0  0  0  0  0  0  0  0  0  0  0  0
   -6.9890   14.4470    1.1680 S   0  0  0  0  0  0  0  0  0  0  0  0
   -7.8830   14.8940    2.2120 O   0  0  0  0  0  0  0  0  0  0  0  0
   -7.3620   14.5630   -0.2270 O   0  0  0  0  0  0  0  0  0  0  0  0
   -5.4730   15.2020    1.3050 N   0  0  0  0  0  0  0  0  0  0  0  0
   -4.5800   14.9810    0.2450 C   0  0  0  0  0  0  0  0  0  0  0  0
   -3.3910   14.3450    0.5370 C   0  0  0  0  0  0  0  0  0  0  0  0
   -4.9020   15.3860   -1.0490 C   0  0  0  0  0  0  0  0  0  0  0  0
   -2.4970   14.0800   -0.4770 C   0  0  0  0  0  0  0  0  0  0  0  0
   -4.0020   15.1180   -2.0710 C   0  0  0  0  0  0  0  0  0  0  0  0
   -2.8000   14.4550   -1.7810 C   0  0  0  0  0  0  0  0  0  0  0  0
   -1.8470   14.1350   -2.8480 C   0  0  0  0  0  0  0  0  0  0  0  0
   -0.6860   13.8720   -2.6080 O   0  0  0  0  0  0  0  0  0  0  0  0
   -2.4360   14.1420   -4.0600 O   0  0  0  0  0  0  0  0  0  0  0  0
   -3.3340   15.2240   -4.2690 C   0  0  0  0  0  0  0  0  0  0  0  0
   -2.9010   15.8670   -5.5540 C   0  0  0  0  0  0  0  0  0  0  0  0
   -1.6150   16.6610   -5.5300 C   0  0  0  0  0  0  0  0  0  0  0  0
   -0.2830   15.9480   -5.2570 C   0  0  2  0  0  0  0  0  0  0  0  0
   -1.5640   17.9780   -5.7730 C   0  0  0  0  0  0  0  0  0  0  0  0
   -0.0200   14.7830   -4.3740 C   0  0  0  0  0  0  0  0  0  0  0  0
    0.7350   16.8690   -4.6850 C   0  0  0  0  0  0  0  0  0  0  0  0
   -0.3160   18.7050   -5.7740 C   0  0  0  0  0  0  0  0  0  0  0  0
    1.0100   15.0780   -3.5620 C   0  0  0  0  0  0  0  0  0  0  0  0
    1.4570   16.3570   -3.7540 N   0  0  0  0  0  0  0  0  0  0  0  0
    0.8280   18.2200   -5.2540 C   0  0  0  0  0  0  0  0  0  0  0  0
    1.6150   14.1270   -2.5520 C   0  0  0  0  0  0  0  0  0  0  0  0
    2.6850   14.6190   -1.8580 O   0  0  0  0  0  0  0  0  0  0  0  0
    1.2050   13.0000   -2.3510 O   0  0  0  0  0  0  0  0  0  0  0  0
  1  2  1  0
  2  3  2  0
  2  4  2  0
  2  5  1  0
  5  6  1  0
  6  7  2  0
  6  8  1  0
  7  9  1  0
  8 10  2  0
  9 11  2  0
 10 11  1  0
 11 12  1  0
 12 13  2  0
 12 14  1  0
 14 15  1  0
 15 16  1  0
 16 17  1  0
 17 18  1  0
 17 19  2  0
 18 20  1  1
 18 21  1  0
 19 22  1  0
 20 23  2  0
 21 24  2  0
 23 24  1  0
 21 25  1  0
 22 25  2  0
 23 26  1  0
 26 27  1  0
 26 28  2  0
M  END
