mac-x0584-mac-x0228
     RDKit          3D

 29 34  0  0  0  0  0  0  0  0999 V2000
   -1.8080   12.9220   -2.0930 O   0  0  0  0  0  0  0  0  0  0  0  0
   -2.3680   14.0030   -2.8250 C   0  0  1  0  0  0  0  0  0  0  0  0
   -3.7350   14.2600   -2.2200 C   0  0  0  0  0  0  0  0  0  0  0  0
   -1.3220   15.1840   -2.7510 C   0  0  1  0  0  0  0  0  0  0  0  0
   -4.0410   13.9330   -0.8840 C   0  0  0  0  0  0  0  0  0  0  0  0
   -4.7440   14.8610   -3.0140 C   0  0  0  0  0  0  0  0  0  0  0  0
   -0.0530   14.7280   -3.5820 C   0  0  1  0  0  0  0  0  0  0  0  0
   -2.0130   16.2410   -3.6470 C   0  0  0  0  0  0  0  0  0  0  0  0
   -1.3380   15.2140   -1.2120 C   0  0  0  0  0  0  0  0  0  0  0  0
   -5.3010   14.2130   -0.3860 C   0  0  0  0  0  0  0  0  0  0  0  0
   -6.0130   15.1330   -2.4930 C   0  0  0  0  0  0  0  0  0  0  0  0
    0.1740   13.2460   -3.8870 C   0  0  0  0  0  0  0  0  0  0  0  0
   -0.2390   15.4160   -4.9590 C   0  0  0  0  0  0  0  0  0  0  0  0
   -1.7230   15.7540   -5.0460 C   0  0  0  0  0  0  0  0  0  0  0  0
   -0.2110   14.9150   -0.4500 N   0  0  0  0  0  0  0  0  0  0  0  0
   -2.4330   15.4570   -0.5040 C   0  0  0  0  0  0  0  0  0  0  0  0
   -6.2660   14.8040   -1.1800 C   0  0  0  0  0  0  0  0  0  0  0  0
   -5.8550   13.9760    0.9740 C   0  0  0  0  0  0  0  0  0  0  0  0
    1.4200   12.3840   -3.5720 C   0  0  0  0  0  0  0  0  0  0  0  0
   -0.6800   12.0880   -3.3220 C   0  0  0  0  0  0  0  0  0  0  0  0
   -0.3100   14.7990    0.9140 C   0  0  0  0  0  0  0  0  0  0  0  0
   -2.4230   15.3380    0.9720 C   0  0  0  0  0  0  0  0  0  0  0  0
   -3.7820   15.8040   -0.7560 C   0  0  0  0  0  0  0  0  0  0  0  0
   -7.4550   15.0160   -0.5380 O   0  0  0  0  0  0  0  0  0  0  0  0
   -7.3260   14.2770    0.7020 C   0  0  0  0  0  0  0  0  0  0  0  0
    0.4610   11.1680   -3.7100 C   0  0  0  0  0  0  0  0  0  0  0  0
   -1.3290   14.9810    1.6530 N   0  0  0  0  0  0  0  0  0  0  0  0
   -3.5720   15.5650    1.5100 N   0  0  0  0  0  0  0  0  0  0  0  0
   -4.3640   15.8420    0.4320 C   0  0  0  0  0  0  0  0  0  0  0  0
  2  1  1  1
  2  3  1  0
  2  4  1  0
  3  5  2  0
  3  6  1  0
  4  7  1  0
  4  8  1  0
  4  9  1  1
  5 10  1  0
  6 11  2  0
  7 12  1  6
  7 13  1  0
  8 14  1  0
 13 14  1  0
  9 15  1  0
  9 16  2  0
 10 17  2  0
 11 17  1  0
 10 18  1  0
 12 19  1  0
 12 20  1  0
 15 21  1  0
 16 22  1  0
 16 23  1  0
 17 24  1  0
 18 25  1  0
 24 25  1  0
 19 26  1  0
 20 26  1  0
 21 27  2  0
 22 27  1  0
 22 28  2  0
 23 29  2  0
 28 29  1  0
M  END
