mac-x0392-mac-x0546
     RDKit          3D

 26 28  0  0  0  0  0  0  0  0999 V2000
   -0.0990   13.9000    0.5730 N   0  0  0  0  0  0  0  0  0  0  0  0
   -1.3840   14.3670    0.2550 C   0  0  0  0  0  0  0  0  0  0  0  0
   -2.2960   14.5730    1.2700 C   0  0  0  0  0  0  0  0  0  0  0  0
   -1.8550   14.6520   -1.0430 C   0  0  0  0  0  0  0  0  0  0  0  0
   -0.9970   14.4750   -2.2320 C   0  0  0  0  0  0  0  0  0  0  0  0
   -3.1670   15.1150   -1.2310 C   0  0  0  0  0  0  0  0  0  0  0  0
   -3.5600   15.0170    1.1200 N   0  0  0  0  0  0  0  0  0  0  0  0
   -1.4130   14.0020   -3.2680 O   0  0  0  0  0  0  0  0  0  0  0  0
    0.2650   14.9060   -2.0090 O   0  0  0  0  0  0  0  0  0  0  0  0
   -3.9680   15.2800   -0.1290 C   0  0  0  0  0  0  0  0  0  0  0  0
    1.1590   13.8750   -1.5770 C   0  0  0  0  0  0  0  0  0  0  0  0
    0.5720   12.5400   -1.6620 N   0  0  0  0  0  0  0  0  0  0  0  0
    0.4370   12.0260   -2.8320 C   0  0  0  0  0  0  0  0  0  0  0  0
    0.7580   12.5420   -4.2340 C   0  0  0  0  0  0  0  0  0  0  0  0
   -0.0880   10.7870   -2.8290 O   0  0  0  0  0  0  0  0  0  0  0  0
    0.8280   14.0330   -4.3770 C   0  0  0  0  0  0  0  0  0  0  0  0
   -0.0880   14.8480   -5.2260 C   0  0  1  0  0  0  0  0  0  0  0  0
    1.7150   14.8650   -3.8200 C   0  0  0  0  0  0  0  0  0  0  0  0
   -1.5770   14.9130   -5.1260 C   0  0  0  0  0  0  0  0  0  0  0  0
    0.4850   16.2040   -4.8690 C   0  0  0  0  0  0  0  0  0  0  0  0
    1.5100   16.1870   -4.1070 N   0  0  0  0  0  0  0  0  0  0  0  0
   -2.2150   16.0900   -5.3050 C   0  0  0  0  0  0  0  0  0  0  0  0
   -0.1460   17.4230   -5.3900 C   0  0  0  0  0  0  0  0  0  0  0  0
   -3.5590   16.2820   -5.2730 O   0  0  0  0  0  0  0  0  0  0  0  0
   -1.4710   17.3180   -5.5810 C   0  0  0  0  0  0  0  0  0  0  0  0
   -4.3660   15.2840   -5.8950 C   0  0  0  0  0  0  0  0  0  0  0  0
  1  2  1  0
  2  3  2  0
  2  4  1  0
  4  5  1  0
  4  6  2  0
  3  7  1  0
  5  8  2  0
  5  9  1  0
  6 10  1  0
  7 10  2  0
  9 11  1  0
 11 12  1  0
 12 13  2  3
 13 14  1  0
 13 15  1  0
 14 16  1  0
 16 17  1  0
 16 18  2  0
 17 19  1  1
 17 20  1  0
 18 21  1  0
 20 21  2  0
 19 22  2  0
 20 23  1  0
 22 24  1  0
 22 25  1  0
 23 25  2  0
 24 26  1  0
M  END
