mac-x0204-mac-x0319
     RDKit          3D

 20 21  0  0  0  0  0  0  0  0999 V2000
   -0.5170   12.4500   -1.9570 N   0  0  0  0  0  0  0  0  0  0  0  0
   -0.6830   13.7810   -2.2640 C   0  0  0  0  0  0  0  0  0  0  0  0
   -0.1080   14.7200   -1.7130 O   0  0  0  0  0  0  0  0  0  0  0  0
    0.5560   11.8880   -2.3910 C   0  0  0  0  0  0  0  0  0  0  0  0
    0.6780   10.5540   -2.1410 O   0  0  0  0  0  0  0  0  0  0  0  0
    1.6680   12.5820   -3.1780 C   0  0  0  0  0  0  0  0  0  0  0  0
   -1.6460   14.0030   -3.3810 C   0  0  0  0  0  0  0  0  0  0  0  0
   -1.8490   15.2350   -4.0170 C   0  0  0  0  0  0  0  0  0  0  0  0
   -2.3930   12.9200   -3.8360 C   0  0  0  0  0  0  0  0  0  0  0  0
    1.0740   13.7740   -3.8600 C   0  0  0  0  0  0  0  0  0  0  0  0
   -2.7690   15.3280   -5.0580 C   0  0  0  0  0  0  0  0  0  0  0  0
   -3.2980   12.9830   -4.8500 N   0  0  0  0  0  0  0  0  0  0  0  0
    1.5190   15.0840   -3.6250 C   0  0  0  0  0  0  0  0  0  0  0  0
    0.0320   13.5550   -4.7430 C   0  0  0  0  0  0  0  0  0  0  0  0
   -2.9400   16.5400   -5.6640 O   0  0  0  0  0  0  0  0  0  0  0  0
   -3.4640   14.1900   -5.4380 C   0  0  0  0  0  0  0  0  0  0  0  0
    0.9000   16.1500   -4.2800 C   0  0  0  0  0  0  0  0  0  0  0  0
   -0.5670   14.6150   -5.3780 C   0  0  0  0  0  0  0  0  0  0  0  0
    1.3310   17.4220   -4.0400 O   0  0  0  0  0  0  0  0  0  0  0  0
   -0.1410   15.9260   -5.1560 C   0  0  0  0  0  0  0  0  0  0  0  0
  1  2  1  0
  2  3  2  0
  1  4  2  3
  4  5  1  0
  4  6  1  0
  2  7  1  0
  7  8  2  0
  7  9  1  0
  6 10  1  0
  8 11  1  0
  9 12  2  0
 10 13  2  0
 10 14  1  0
 11 15  1  0
 11 16  2  0
 12 16  1  0
 13 17  1  0
 14 18  2  0
 17 19  1  0
 17 20  2  0
 18 20  1  0
M  END
