mac-x0346-diamond-x0724_0_A
     RDKit          3D

 18 19  0  0  0  0  0  0  0  0999 V2000
   -7.6550   13.1370    0.0990 O   0  0  0  0  0  0  0  0  0  0  0  0
   -7.6220   13.5250   -1.2630 N   0  0  0  0  0  0  0  0  0  0  0  0
   -6.4110   14.0230   -1.7080 C   0  0  0  0  0  0  0  0  0  0  0  0
   -6.3000   14.4760   -2.8390 O   0  0  0  0  0  0  0  0  0  0  0  0
   -5.2720   13.9570   -0.6930 C   0  0  1  0  0  0  0  0  0  0  0  0
   -4.1430   14.8130   -1.3120 C   0  0  2  0  0  0  0  0  0  0  0  0
   -5.7370   14.4990    0.6790 C   0  0  1  0  0  0  0  0  0  0  0  0
   -3.7820   14.2910   -2.5980 O   0  0  0  0  0  0  0  0  0  0  0  0
   -2.9680   14.8240   -0.4110 C   0  0  0  0  0  0  0  0  0  0  0  0
   -4.6150   15.4850    1.2260 C   0  0  0  0  0  0  0  0  0  0  0  0
   -7.0690   15.1060    0.3560 N   0  0  0  0  0  0  0  0  0  0  0  0
   -6.1220   13.5080    1.8090 C   0  0  0  0  0  0  0  0  0  0  0  0
   -3.2020   15.1460    0.8450 C   0  0  0  0  0  0  0  0  0  0  0  0
   -7.2220   14.2900    2.5540 C   0  0  1  0  0  0  0  0  0  0  0  0
   -8.0430   14.8390    1.4240 C   0  0  0  0  0  0  0  0  0  0  0  0
   -8.0730   13.5910    3.6160 C   0  0  0  0  0  0  0  0  0  0  0  0
   -8.0890   14.3140    4.8740 N   0  0  0  0  0  0  0  0  0  0  0  0
   -8.8890   13.6320    5.8760 C   0  0  0  0  0  0  0  0  0  0  0  0
  1  2  1  0
  2  3  1  0
  3  4  2  0
  5  3  1  6
  5  6  1  0
  5  7  1  0
  6  8  1  6
  6  9  1  0
  7 10  1  1
  7 11  1  0
  7 12  1  0
  9 13  2  0
 10 13  1  0
 12 14  1  0
 11 15  1  0
 14 15  1  0
 14 16  1  1
 16 17  1  0
 17 18  1  0
M  END
