mac-x0328-mac-x0375
     RDKit          3D

 23 24  0  0  0  0  0  0  0  0999 V2000
   -1.9990   15.0720   -3.9540 O   0  0  0  0  0  0  0  0  0  0  0  0
   -1.9300   14.8960   -2.6240 C   0  0  0  0  0  0  0  0  0  0  0  0
   -0.7950   14.7350   -2.0280 N   0  0  0  0  0  0  0  0  0  0  0  0
   -3.2590   14.9460   -1.9670 C   0  0  0  0  0  0  0  0  0  0  0  0
    0.3630   14.7920   -2.9490 C   0  0  0  0  0  0  0  0  0  0  0  0
   -3.3820   14.8560   -0.5740 C   0  0  0  0  0  0  0  0  0  0  0  0
   -4.4000   15.0980   -2.7600 C   0  0  0  0  0  0  0  0  0  0  0  0
    1.5850   13.9850   -2.4850 C   0  0  0  0  0  0  0  0  0  0  0  0
   -4.6510   14.9150    0.0210 C   0  0  0  0  0  0  0  0  0  0  0  0
   -5.6610   15.1580   -2.1680 C   0  0  0  0  0  0  0  0  0  0  0  0
    1.3080   12.5850   -2.2910 O   0  0  0  0  0  0  0  0  0  0  0  0
   -5.7770   15.0660   -0.7890 C   0  0  0  0  0  0  0  0  0  0  0  0
   -7.0340   15.1260   -0.2660 O   0  0  0  0  0  0  0  0  0  0  0  0
    0.8130   11.8230   -3.3210 C   0  0  0  0  0  0  0  0  0  0  0  0
    0.3980   10.6860   -3.1480 O   0  0  0  0  0  0  0  0  0  0  0  0
    0.8590   12.5480   -4.6690 C   0  0  0  0  0  0  0  0  0  0  0  0
    0.7600   11.7170   -5.8240 O   0  0  0  0  0  0  0  0  0  0  0  0
   -0.3160   10.8790   -5.9900 C   0  0  0  0  0  0  0  0  0  0  0  0
   -0.3300    9.7130   -6.7620 C   0  0  0  0  0  0  0  0  0  0  0  0
   -1.4840   11.2480   -5.3150 C   0  0  0  0  0  0  0  0  0  0  0  0
   -1.4850    8.9350   -6.8530 C   0  0  0  0  0  0  0  0  0  0  0  0
   -2.6430   10.4700   -5.4070 C   0  0  0  0  0  0  0  0  0  0  0  0
   -2.6420    9.3100   -6.1770 C   0  0  0  0  0  0  0  0  0  0  0  0
  1  2  1  0
  2  3  2  3
  2  4  1  0
  3  5  1  0
  4  6  2  0
  4  7  1  0
  5  8  1  0
  6  9  1  0
  7 10  2  0
  8 11  1  0
  9 12  2  0
 10 12  1  0
 12 13  1  0
 11 14  1  0
 14 15  2  0
 14 16  1  0
 16 17  1  0
 17 18  1  0
 18 19  2  0
 18 20  1  0
 19 21  1  0
 20 22  2  0
 21 23  2  0
 22 23  1  0
M  END
