mac-x0190-diamond-x0910_1_A
     RDKit          3D

 11 12  0  0  0  0  0  0  0  0999 V2000
   -9.2920   15.0650    2.3670 O   0  0  0  0  0  0  0  0  0  0  0  0
   -9.0280   14.1800    1.2860 C   0  0  0  0  0  0  0  0  0  0  0  0
   -7.6560   14.4630    0.8070 C   0  0  0  0  0  0  0  0  0  0  0  0
   -7.3940   14.7830   -0.4990 N   0  0  0  0  0  0  0  0  0  0  0  0
   -6.5500   14.4500    1.5190 N   0  0  0  0  0  0  0  0  0  0  0  0
   -6.0450   14.9840   -0.6290 C   0  0  0  0  0  0  0  0  0  0  0  0
   -5.5400   14.7690    0.6460 C   0  0  0  0  0  0  0  0  0  0  0  0
   -5.2520   15.3230   -1.7180 C   0  0  0  0  0  0  0  0  0  0  0  0
   -4.1630   14.8940    0.8690 C   0  0  0  0  0  0  0  0  0  0  0  0
   -3.8820   15.4400   -1.4800 C   0  0  0  0  0  0  0  0  0  0  0  0
   -3.3430   15.2280   -0.2070 C   0  0  0  0  0  0  0  0  0  0  0  0
  1  2  1  0
  2  3  1  0
  3  4  1  0
  3  5  2  0
  4  6  1  0
  5  7  1  0
  6  7  2  0
  6  8  1  0
  7  9  1  0
  8 10  2  0
  9 11  2  0
 10 11  1  0
M  END
