mac-x0379-mac-x0588
     RDKit          3D

 18 20  0  0  0  0  0  0  0  0999 V2000
   -4.5150   15.0410    0.5940 C   0  0  0  0  0  0  0  0  0  0  0  0
   -3.8020   15.1700   -0.7150 C   0  0  0  0  0  0  0  0  0  0  0  0
   -4.4630   15.4140   -1.8130 N   0  0  0  0  0  0  0  0  0  0  0  0
   -2.2850   15.0310   -0.8860 C   0  0  1  0  0  0  0  0  0  0  0  0
   -3.5070   15.4900   -2.7830 C   0  0  0  0  0  0  0  0  0  0  0  0
   -2.2530   15.3030   -2.3550 C   0  0  0  0  0  0  0  0  0  0  0  0
   -1.4520   15.9400   -0.0580 N   0  0  0  0  0  0  0  0  0  0  0  0
   -1.6510   13.7290   -0.5820 C   0  0  0  0  0  0  0  0  0  0  0  0
   -1.0040   15.3230   -3.1870 C   0  0  0  0  0  0  0  0  0  0  0  0
   -0.6180   13.8420    0.1780 N   0  0  0  0  0  0  0  0  0  0  0  0
   -0.5440   15.1670    0.4700 C   0  0  0  0  0  0  0  0  0  0  0  0
   -1.2040   14.4600   -4.2920 O   0  0  0  0  0  0  0  0  0  0  0  0
    0.0690   14.7380   -2.4750 O   0  0  0  0  0  0  0  0  0  0  0  0
   -0.5050   16.7050   -3.6990 C   0  0  2  0  0  0  0  0  0  0  0  0
   -1.5450   17.5040   -4.3380 O   0  0  0  0  0  0  0  0  0  0  0  0
    0.6020   16.5610   -4.7370 C   0  0  0  0  0  0  0  0  0  0  0  0
    0.5390   17.8750   -5.4590 C   0  0  0  0  0  0  0  0  0  0  0  0
   -0.9540   18.1660   -5.4670 C   0  0  0  0  0  0  0  0  0  0  0  0
  1  2  1  0
  2  3  2  0
  2  4  1  0
  3  5  1  0
  4  6  1  0
  5  6  2  0
  4  7  1  0
  4  8  1  6
  6  9  1  0
  8 10  2  0
  7 11  2  0
 10 11  1  0
  9 12  1  0
  9 13  1  0
 14  9  1  6
 14 15  1  0
 14 16  1  0
 16 17  1  0
 15 18  1  0
 17 18  1  0
M  END
