mac-x0284-mac-x0380
     RDKit          3D

 23 26  0  0  0  0  0  0  0  0999 V2000
   -4.1240   15.8420    1.9150 C   0  0  0  0  0  0  0  0  0  0  0  0
   -3.7610   15.7130    0.4790 C   0  0  0  0  0  0  0  0  0  0  0  0
   -4.8150   15.7090   -0.4730 C   0  0  0  0  0  0  0  0  0  0  0  0
   -2.4140   15.5900    0.0890 C   0  0  0  0  0  0  0  0  0  0  0  0
   -2.1550   15.4620   -1.2710 C   0  0  0  0  0  0  0  0  0  0  0  0
   -4.6020   15.5820   -1.8680 C   0  0  0  0  0  0  0  0  0  0  0  0
   -0.8340   15.2980   -2.0700 C   0  0  0  0  0  0  0  0  0  0  0  0
   -3.3010   15.4630   -2.2950 C   0  0  0  0  0  0  0  0  0  0  0  0
   -2.7170   15.3930   -3.6050 N   0  0  0  0  0  0  0  0  0  0  0  0
   -0.1650   14.1080   -1.7280 O   0  0  0  0  0  0  0  0  0  0  0  0
   -0.0920   16.4700   -1.9580 O   0  0  0  0  0  0  0  0  0  0  0  0
   -2.1730   15.2650   -2.5720 C   0  0  0  0  0  0  0  0  0  0  0  0
   -3.2290   14.8470   -1.5700 C   0  0  0  0  0  0  0  0  0  0  0  0
   -4.5830   15.2010   -1.7860 C   0  0  0  0  0  0  0  0  0  0  0  0
   -2.9180   14.0600   -0.4230 C   0  0  0  0  0  0  0  0  0  0  0  0
   -5.6070   14.7980   -0.8920 C   0  0  0  0  0  0  0  0  0  0  0  0
   -3.9350   13.6620    0.4670 C   0  0  0  0  0  0  0  0  0  0  0  0
   -5.2690   14.0260    0.2390 C   0  0  0  0  0  0  0  0  0  0  0  0
   -7.2860   15.2970   -1.2560 S   0  0  0  0  0  0  0  0  0  0  0  0
   -6.2100   13.5890    1.1830 N   0  0  0  0  0  0  0  0  0  0  0  0
   -8.1720   14.0850   -0.2580 C   0  0  0  0  0  0  0  0  0  0  0  0
   -7.5560   13.8190    1.0970 C   0  0  0  0  0  0  0  0  0  0  0  0
   -8.2530   13.8060    2.1160 O   0  0  0  0  0  0  0  0  0  0  0  0
  1  2  1  0
  2  3  2  0
  2  4  1  0
  4  5  2  0
  3  6  1  0
  5  7  1  0
  5  8  1  0
  6  8  2  0
  8  9  1  0
  7 10  1  0
  7 11  1  0
  7 12  1  0
  9 12  2  0
 12 13  1  0
 13 14  2  0
 13 15  1  0
 14 16  1  0
 15 17  2  0
 16 18  2  0
 17 18  1  0
 16 19  1  0
 18 20  1  0
 19 21  1  0
 20 22  1  0
 21 22  1  0
 22 23  2  0
M  END
