mac-x0348-diamond-x0438_0_A
     RDKit          3D

 32 35  0  0  0  0  0  0  0  0999 V2000
    0.7750   18.5810   -5.9180 C   0  0  0  0  0  0  0  0  0  0  0  0
    0.1670   17.4070   -5.3550 N   0  0  0  0  0  0  0  0  0  0  0  0
    0.7990   16.5140   -4.5360 C   0  0  0  0  0  0  0  0  0  0  0  0
   -1.1280   17.0060   -5.5560 C   0  0  0  0  0  0  0  0  0  0  0  0
   -0.0990   15.5270   -4.2160 C   0  0  0  0  0  0  0  0  0  0  0  0
   -1.2970   15.8210   -4.8530 C   0  0  0  0  0  0  0  0  0  0  0  0
   -2.1710   17.5470   -6.2760 C   0  0  0  0  0  0  0  0  0  0  0  0
    0.0290   14.3200   -3.3620 C   0  0  1  0  0  0  0  0  0  0  0  0
   -2.5180   15.1390   -4.8670 C   0  0  0  0  0  0  0  0  0  0  0  0
   -3.3610   16.8420   -6.2550 C   0  0  0  0  0  0  0  0  0  0  0  0
    0.9810   13.2390   -3.8540 C   0  0  0  0  0  0  0  0  0  0  0  0
    0.1720   14.6940   -1.8720 C   0  0  0  0  0  0  0  0  0  0  0  0
   -3.5510   15.6660   -5.5810 C   0  0  0  0  0  0  0  0  0  0  0  0
    0.9560   12.1990   -2.7950 C   0  0  0  0  0  0  0  0  0  0  0  0
   -0.7960   15.8150   -1.4440 C   0  0  0  0  0  0  0  0  0  0  0  0
    1.4480   12.3370   -1.7170 O   0  0  0  0  0  0  0  0  0  0  0  0
    0.3030   11.0710   -3.1200 O   0  0  0  0  0  0  0  0  0  0  0  0
   -2.1900   15.7110   -2.1110 C   0  0  0  0  0  0  0  0  0  0  0  0
   -3.2970   15.4020   -1.1230 C   0  0  0  0  0  0  0  0  0  0  0  0
   -4.6540   15.2520   -1.5060 C   0  0  0  0  0  0  0  0  0  0  0  0
   -2.9220   15.2540    0.2170 C   0  0  0  0  0  0  0  0  0  0  0  0
   -5.5710   14.9390   -0.4810 C   0  0  0  0  0  0  0  0  0  0  0  0
   -3.8500   14.9500    1.2070 C   0  0  0  0  0  0  0  0  0  0  0  0
   -6.9320   14.7110   -0.4530 N   0  0  0  0  0  0  0  0  0  0  0  0
   -5.1860   14.7890    0.8450 C   0  0  0  0  0  0  0  0  0  0  0  0
   -7.3060   14.4300    0.8550 C   0  0  0  0  0  0  0  0  0  0  0  0
   -6.2590   14.4810    1.6400 N   0  0  0  0  0  0  0  0  0  0  0  0
   -8.6920   14.1060    1.3200 C   0  0  0  0  0  0  0  0  0  0  0  0
   -9.3820   15.3030    2.4540 S   0  0  0  0  0  0  0  0  0  0  0  0
   -8.1610   15.4460    3.7420 C   0  0  0  0  0  0  0  0  0  0  0  0
  -10.5660   14.7080    3.0580 O   0  0  0  0  0  0  0  0  0  0  0  0
   -9.5040   16.5720    1.7770 O   0  0  0  0  0  0  0  0  0  0  0  0
  1  2  1  0
  2  3  1  0
  2  4  1  0
  3  5  2  0
  4  6  2  0
  5  6  1  0
  4  7  1  0
  5  8  1  0
  6  9  1  0
  7 10  2  0
  8 11  1  6
  8 12  1  0
  9 13  2  0
 10 13  1  0
 11 14  1  0
 12 15  1  0
 14 16  2  0
 14 17  1  0
 15 18  1  0
 18 19  1  0
 19 20  2  0
 19 21  1  0
 20 22  1  0
 21 23  2  0
 22 24  1  0
 22 25  2  0
 23 25  1  0
 24 26  1  0
 25 27  1  0
 26 27  2  0
 26 28  1  0
 29 28  1  0
 29 30  1  0
 29 31  2  0
 29 32  2  0
M  END
