mac-x0306-mac-x0142
     RDKit          3D

 24 28  0  0  0  0  0  0  0  0999 V2000
   -8.4820   14.8630    0.9820 C   0  0  0  0  0  0  0  0  0  0  0  0
   -7.7400   14.7180    2.1230 C   0  0  0  0  0  0  0  0  0  0  0  0
   -6.4760   14.4250    1.6970 N   0  0  0  0  0  0  0  0  0  0  0  0
   -7.7010   14.6680   -0.1250 N   0  0  0  0  0  0  0  0  0  0  0  0
   -6.4800   14.3990    0.3090 C   0  0  0  0  0  0  0  0  0  0  0  0
   -5.2660   14.0920   -0.5630 C   0  0  1  0  0  0  0  0  0  0  0  0
   -5.3140   14.6420   -1.9570 C   0  0  0  0  0  0  0  0  0  0  0  0
   -3.8550   14.1550    0.1090 C   0  0  0  0  0  0  0  0  0  0  0  0
   -4.3570   15.4310   -2.4110 C   0  0  0  0  0  0  0  0  0  0  0  0
   -2.7030   14.9360   -0.6180 C   0  0  1  0  0  0  0  0  0  0  0  0
   -3.2990   15.8190   -1.6510 N   0  0  0  0  0  0  0  0  0  0  0  0
   -2.0900   15.8280    0.4510 C   0  0  0  0  0  0  0  0  0  0  0  0
   -1.3960   14.3050   -1.3430 C   0  0  1  0  0  0  0  0  0  0  0  0
   -1.0400   14.5940   -2.7660 N   0  0  0  0  0  0  0  0  0  0  0  0
   -0.1750   14.8150   -0.6300 N   0  0  0  0  0  0  0  0  0  0  0  0
   -1.3980   14.9690    1.3950 N   0  0  0  0  0  0  0  0  0  0  0  0
   -2.0150   14.1410   -3.7910 C   0  0  0  0  0  0  0  0  0  0  0  0
    0.3250   14.8340   -3.2380 C   0  0  0  0  0  0  0  0  0  0  0  0
   -0.1300   14.6360    0.8140 C   0  0  0  0  0  0  0  0  0  0  0  0
    0.7820   13.6390   -4.0660 C   0  0  0  0  0  0  0  0  0  0  0  0
   -1.5300   13.0180   -4.7190 C   0  0  0  0  0  0  0  0  0  0  0  0
    2.2610   13.3670   -4.2610 C   0  0  0  0  0  0  0  0  0  0  0  0
    1.4710   12.5220   -3.3110 C   0  0  0  0  0  0  0  0  0  0  0  0
   -0.1220   13.2800   -5.2260 C   0  0  0  0  0  0  0  0  0  0  0  0
  1  2  2  0
  2  3  1  0
  1  4  1  0
  3  5  1  0
  4  5  2  0
  6  5  1  1
  6  7  1  0
  6  8  1  0
  7  9  2  0
 10  8  1  1
  9 11  1  0
 10 11  1  0
 10 12  1  0
 10 13  1  0
 13 14  1  6
 13 15  1  0
 12 16  1  0
 14 17  1  0
 14 18  1  0
 15 19  1  0
 16 19  1  0
 20 18  1  0
 17 21  1  0
 20 22  1  0
 20 23  1  0
 22 23  1  0
 20 24  1  0
 21 24  1  0
M  END
