mac-x0305-mac-x0417
     RDKit          3D

 24 26  0  0  0  0  0  0  0  0999 V2000
    0.3100   13.2140   -0.3340 O   0  0  0  0  0  0  0  0  0  0  0  0
   -0.2700   14.1020   -1.2000 C   0  0  0  0  0  0  0  0  0  0  0  0
    0.4360   14.3870   -2.2390 N   0  0  0  0  0  0  0  0  0  0  0  0
   -1.6280   14.5730   -0.7750 C   0  0  0  0  0  0  0  0  0  0  0  0
    1.7640   13.8050   -2.4080 C   0  0  0  0  0  0  0  0  0  0  0  0
   -1.9830   14.8010    0.5720 C   0  0  0  0  0  0  0  0  0  0  0  0
   -2.5100   14.7810   -1.7960 N   0  0  0  0  0  0  0  0  0  0  0  0
   -1.1600   14.6220    1.6640 O   0  0  0  0  0  0  0  0  0  0  0  0
    1.7890   12.3960   -2.6180 O   0  0  0  0  0  0  0  0  0  0  0  0
   -3.2730   15.2530    0.8500 C   0  0  0  0  0  0  0  0  0  0  0  0
   -3.7500   15.2210   -1.4880 C   0  0  0  0  0  0  0  0  0  0  0  0
    0.7790   11.8290   -3.3260 C   0  0  0  0  0  0  0  0  0  0  0  0
   -4.1720   15.4690   -0.1960 C   0  0  0  0  0  0  0  0  0  0  0  0
    0.2360   10.7810   -2.9930 O   0  0  0  0  0  0  0  0  0  0  0  0
    0.4160   12.6010   -4.5760 C   0  0  0  0  0  0  0  0  0  0  0  0
    0.2990   11.6920   -5.7450 C   0  0  0  0  0  0  0  0  0  0  0  0
    1.2470   11.7070   -6.6830 N   0  0  0  0  0  0  0  0  0  0  0  0
   -0.7170   10.7470   -6.0370 C   0  0  0  0  0  0  0  0  0  0  0  0
    0.8570   10.7580   -7.6200 O   0  0  0  0  0  0  0  0  0  0  0  0
   -0.3130   10.1850   -7.2310 C   0  0  0  0  0  0  0  0  0  0  0  0
   -1.9130   10.2990   -5.4480 C   0  0  0  0  0  0  0  0  0  0  0  0
   -1.0130    9.1900   -7.9090 C   0  0  0  0  0  0  0  0  0  0  0  0
   -2.6440    9.2990   -6.1010 C   0  0  0  0  0  0  0  0  0  0  0  0
   -2.2040    8.7540   -7.3070 C   0  0  0  0  0  0  0  0  0  0  0  0
  1  2  1  0
  2  3  2  3
  2  4  1  0
  3  5  1  0
  4  6  2  0
  4  7  1  0
  6  8  1  0
  5  9  1  0
  6 10  1  0
  7 11  2  0
  9 12  1  0
 10 13  2  0
 11 13  1  0
 12 14  2  0
 12 15  1  0
 15 16  1  0
 16 17  2  0
 16 18  1  0
 17 19  1  0
 18 20  2  0
 19 20  1  0
 18 21  1  0
 20 22  1  0
 21 23  2  0
 22 24  2  0
 23 24  1  0
M  END
