mac-x0282-mac-x0345
     RDKit          3D

 20 22  0  0  0  0  0  0  0  0999 V2000
   -7.4510   14.5050    0.9770 C   0  0  0  0  0  0  0  0  0  0  0  0
   -6.4120   14.9070   -0.0330 C   0  0  0  0  0  0  0  0  0  0  0  0
   -6.7610   14.7600   -1.3330 N   0  0  0  0  0  0  0  0  0  0  0  0
   -5.1630   15.4000    0.3700 C   0  0  0  0  0  0  0  0  0  0  0  0
   -4.8990   15.5130    1.6910 O   0  0  0  0  0  0  0  0  0  0  0  0
   -4.2720   15.7450   -0.6040 C   0  0  0  0  0  0  0  0  0  0  0  0
   -5.8560   15.1050   -2.2570 C   0  0  0  0  0  0  0  0  0  0  0  0
   -6.2300   14.9310   -3.5800 N   0  0  0  0  0  0  0  0  0  0  0  0
   -3.6830   14.9860    2.2370 C   0  0  0  0  0  0  0  0  0  0  0  0
   -4.6090   15.6010   -1.9360 C   0  0  0  0  0  0  0  0  0  0  0  0
   -2.3700   15.4000    1.6060 C   0  0  0  0  0  0  0  0  0  0  0  0
   -1.6510   14.3550    1.0160 N   0  0  0  0  0  0  0  0  0  0  0  0
   -2.4940   14.0490    0.0570 C   0  0  0  0  0  0  0  0  0  0  0  0
   -0.3240   14.6050    0.6930 C   0  0  0  0  0  0  0  0  0  0  0  0
   -2.1350   14.2580   -1.3500 C   0  0  0  0  0  0  0  0  0  0  0  0
   -3.7050   13.6200    0.2100 N   0  0  0  0  0  0  0  0  0  0  0  0
    0.0880   14.7430   -0.5720 C   0  0  0  0  0  0  0  0  0  0  0  0
   -4.1970   13.5960   -1.0750 C   0  0  0  0  0  0  0  0  0  0  0  0
   -3.3360   13.9880   -2.0370 C   0  0  0  0  0  0  0  0  0  0  0  0
   -0.8800   14.6070   -1.6510 C   0  0  0  0  0  0  0  0  0  0  0  0
  1  2  1  0
  2  3  2  0
  2  4  1  0
  4  5  1  0
  4  6  2  0
  3  7  1  0
  7  8  1  0
  5  9  1  0
  6 10  1  0
  7 10  2  0
  9 11  1  0
 11 12  1  0
 12 13  1  0
 12 14  1  0
 13 15  1  0
 13 16  2  0
 14 17  2  0
 16 18  1  0
 15 19  1  0
 18 19  2  0
 15 20  2  0
 17 20  1  0
M  END
