mac-x0213-diamond-x0471_0_A
     RDKit          3D

 31 34  0  0  0  0  0  0  0  0999 V2000
    0.2960   11.4010   -3.0790 O   0  0  0  0  0  0  0  0  0  0  0  0
    0.2560   12.6760   -2.6540 C   0  0  0  0  0  0  0  0  0  0  0  0
    0.3300   12.9300   -1.3890 N   0  0  0  0  0  0  0  0  0  0  0  0
    0.1030   13.6980   -3.7840 C   0  0  0  0  0  0  0  0  0  0  0  0
    0.2810   14.2940   -0.8750 C   0  0  0  0  0  0  0  0  0  0  0  0
   -1.3600   14.1790   -3.8870 C   0  0  0  0  0  0  0  0  0  0  0  0
    0.9900   14.9740   -3.7140 C   0  0  0  0  0  0  0  0  0  0  0  0
   -0.6910   14.3340    0.3040 C   0  0  0  0  0  0  0  0  0  0  0  0
   -1.2140   15.5490   -4.4730 C   0  0  0  0  0  0  0  0  0  0  0  0
    0.1070   16.0040   -4.3770 C   0  0  0  0  0  0  0  0  0  0  0  0
   -1.5470   15.5980    0.2240 C   0  0  0  0  0  0  0  0  0  0  0  0
   -2.2030   16.3350   -5.0520 C   0  0  0  0  0  0  0  0  0  0  0  0
    0.4570   17.2560   -4.8590 C   0  0  0  0  0  0  0  0  0  0  0  0
   -1.8500   17.5950   -5.5400 C   0  0  0  0  0  0  0  0  0  0  0  0
   -0.5290   18.0530   -5.4440 C   0  0  0  0  0  0  0  0  0  0  0  0
   -3.0330   15.4050   -0.0370 C   0  0  0  0  0  0  0  0  0  0  0  0
   -3.5550   15.5590   -1.3340 C   0  0  0  0  0  0  0  0  0  0  0  0
   -3.9050   15.0720    1.0130 C   0  0  0  0  0  0  0  0  0  0  0  0
   -5.2760   14.8990    0.7480 C   0  0  0  0  0  0  0  0  0  0  0  0
   -4.9230   15.3910   -1.6160 C   0  0  0  0  0  0  0  0  0  0  0  0
   -6.3020   14.5780    1.5990 N   0  0  0  0  0  0  0  0  0  0  0  0
   -5.7510   15.0590   -0.5440 C   0  0  0  0  0  0  0  0  0  0  0  0
   -7.1070   14.8210   -0.4410 N   0  0  0  0  0  0  0  0  0  0  0  0
   -7.3990   14.5340    0.8760 C   0  0  0  0  0  0  0  0  0  0  0  0
   -8.7750   14.2240    1.3800 C   0  0  0  0  0  0  0  0  0  0  0  0
   -8.7330   14.0990    2.8280 N   0  0  0  0  0  0  0  0  0  0  0  0
   -9.1490   15.1470    3.6300 C   0  0  0  0  0  0  0  0  0  0  0  0
   -9.4470   16.2450    3.1740 O   0  0  0  0  0  0  0  0  0  0  0  0
   -9.2510   14.8330    5.1260 C   0  0  0  0  0  0  0  0  0  0  0  0
   -9.6020   13.3680    5.3660 C   0  0  0  0  0  0  0  0  0  0  0  0
   -7.9890   15.2460    5.8780 C   0  0  0  0  0  0  0  0  0  0  0  0
  1  2  1  0
  2  3  2  3
  2  4  1  0
  3  5  1  0
  4  6  1  0
  4  7  1  0
  5  8  1  0
  6  9  1  0
  7 10  1  0
  9 10  2  0
  8 11  1  0
  9 12  1  0
 10 13  1  0
 12 14  2  0
 13 15  2  0
 14 15  1  0
 11 16  1  0
 16 17  2  0
 16 18  1  0
 18 19  2  0
 17 20  1  0
 19 21  1  0
 19 22  1  0
 20 22  2  0
 22 23  1  0
 21 24  2  0
 23 24  1  0
 24 25  1  0
 25 26  1  0
 26 27  1  0
 27 28  2  0
 27 29  1  0
 29 30  1  0
 29 31  1  0
M  END
