mac-x0306-mac-x0139
     RDKit          3D

 23 25  0  0  0  0  0  0  0  0999 V2000
   -2.1840   15.1830   -3.4040 C   0  0  0  0  0  0  0  0  0  0  0  0
   -1.2210   14.4790   -2.5590 N   0  0  0  0  0  0  0  0  0  0  0  0
    0.1630   14.8290   -2.9430 C   0  0  0  0  0  0  0  0  0  0  0  0
   -1.5050   14.3400   -1.1030 C   0  0  2  0  0  0  0  0  0  0  0  0
    0.7200   13.7420   -3.8670 C   0  0  0  0  0  0  0  0  0  0  0  0
   -2.8430   15.0070   -0.5420 C   0  0  1  0  0  0  0  0  0  0  0  0
   -0.2920   14.7680   -0.3850 N   0  0  0  0  0  0  0  0  0  0  0  0
    1.0170   12.4980   -3.0780 C   0  0  0  0  0  0  0  0  0  0  0  0
   -3.4640   15.8790   -1.5310 N   0  0  0  0  0  0  0  0  0  0  0  0
   -3.9510   14.1660    0.1770 C   0  0  0  0  0  0  0  0  0  0  0  0
   -2.2260   15.8140    0.6090 C   0  0  0  0  0  0  0  0  0  0  0  0
   -0.2680   14.5880    1.0440 C   0  0  0  0  0  0  0  0  0  0  0  0
    1.6480   12.4780   -2.0460 O   0  0  0  0  0  0  0  0  0  0  0  0
    0.5100   11.3760   -3.6350 O   0  0  0  0  0  0  0  0  0  0  0  0
   -4.4740   15.4390   -2.3230 C   0  0  0  0  0  0  0  0  0  0  0  0
   -5.3470   14.0440   -0.5140 C   0  0  1  0  0  0  0  0  0  0  0  0
   -1.5290   14.9810    1.5850 N   0  0  0  0  0  0  0  0  0  0  0  0
   -6.5310   14.3760    0.3760 C   0  0  0  0  0  0  0  0  0  0  0  0
   -5.3900   14.5960   -1.9110 C   0  0  0  0  0  0  0  0  0  0  0  0
   -6.5150   14.4340    1.7570 N   0  0  0  0  0  0  0  0  0  0  0  0
   -7.7490   14.6400   -0.0710 N   0  0  0  0  0  0  0  0  0  0  0  0
   -8.5210   14.8660    1.0350 C   0  0  0  0  0  0  0  0  0  0  0  0
   -7.7760   14.7440    2.1780 C   0  0  0  0  0  0  0  0  0  0  0  0
  1  2  1  0
  2  3  1  0
  4  2  1  6
  3  5  1  0
  4  6  1  0
  4  7  1  0
  5  8  1  0
  6  9  1  0
  6 10  1  1
  6 11  1  0
  7 12  1  0
  8 13  2  0
  8 14  1  0
  9 15  1  0
 10 16  1  0
 11 17  1  0
 12 17  1  0
 16 18  1  1
 15 19  2  0
 16 19  1  0
 18 20  1  0
 18 21  2  0
 21 22  1  0
 20 23  1  0
 22 23  2  0
M  END
