mac-x0394-mac-x0305
     RDKit          3D

 20 21  0  0  0  0  0  0  0  0999 V2000
    0.9800   18.2610   -5.1380 Cl  0  0  0  0  0  0  0  0  0  0  0  0
    0.2560   16.7390   -4.8820 C   0  0  0  0  0  0  0  0  0  0  0  0
   -1.0870   16.6120   -5.1710 C   0  0  0  0  0  0  0  0  0  0  0  0
    1.0010   15.6630   -4.4010 C   0  0  0  0  0  0  0  0  0  0  0  0
    0.3890   14.4160   -4.1990 C   0  0  0  0  0  0  0  0  0  0  0  0
   -1.7030   15.3920   -4.9830 C   0  0  0  0  0  0  0  0  0  0  0  0
   -3.3770   15.2520   -5.3570 Cl  0  0  0  0  0  0  0  0  0  0  0  0
    1.2100   13.2480   -3.6740 C   0  0  0  0  0  0  0  0  0  0  0  0
   -0.9820   14.2920   -4.5000 C   0  0  0  0  0  0  0  0  0  0  0  0
    0.5350   12.3580   -2.6260 C   0  0  0  0  0  0  0  0  0  0  0  0
    0.5690   11.0660   -2.9860 O   0  0  0  0  0  0  0  0  0  0  0  0
   -0.0100   12.7500   -1.5160 N   0  0  0  0  0  0  0  0  0  0  0  0
   -0.1140   14.1440   -1.0710 C   0  0  0  0  0  0  0  0  0  0  0  0
   -1.5350   14.5920   -0.7240 C   0  0  0  0  0  0  0  0  0  0  0  0
   -1.9860   14.8060    0.5960 C   0  0  0  0  0  0  0  0  0  0  0  0
   -2.3630   14.7870   -1.8040 N   0  0  0  0  0  0  0  0  0  0  0  0
   -1.1730   14.6150    1.6810 O   0  0  0  0  0  0  0  0  0  0  0  0
   -3.3000   15.2300    0.7980 C   0  0  0  0  0  0  0  0  0  0  0  0
   -3.6300   15.2020   -1.5650 C   0  0  0  0  0  0  0  0  0  0  0  0
   -4.1340   15.4340   -0.2980 C   0  0  0  0  0  0  0  0  0  0  0  0
  1  2  1  0
  2  3  2  0
  2  4  1  0
  4  5  2  0
  3  6  1  0
  6  7  1  0
  5  8  1  0
  5  9  1  0
  6  9  2  0
  8 10  1  0
 10 11  1  0
 10 12  2  3
 12 13  1  0
 13 14  1  0
 14 15  2  0
 14 16  1  0
 15 17  1  0
 15 18  1  0
 16 19  2  0
 18 20  2  0
 19 20  1  0
M  END
