mac-x0319-diamond-x1015_0_A
     RDKit          3D

 25 27  0  0  0  0  0  0  0  0999 V2000
    1.2350   12.0760   -2.6140 N   0  0  0  0  0  0  0  0  0  0  0  0
    1.1610   11.8570   -3.9130 C   0  0  0  0  0  0  0  0  0  0  0  0
    0.5480   10.9170   -4.3620 O   0  0  0  0  0  0  0  0  0  0  0  0
    0.1040   12.4910   -2.3640 C   0  0  0  0  0  0  0  0  0  0  0  0
    1.8220   12.9100   -4.7760 C   0  0  0  0  0  0  0  0  0  0  0  0
   -0.8970   12.6210   -3.2910 N   0  0  0  0  0  0  0  0  0  0  0  0
   -0.3620   12.9480   -1.2230 N   0  0  0  0  0  0  0  0  0  0  0  0
    1.0060   14.1970   -4.7640 C   0  0  0  0  0  0  0  0  0  0  0  0
   -1.2410   14.0420   -3.0870 C   0  0  2  0  0  0  0  0  0  0  0  0
   -0.7390   14.1870   -1.6210 C   0  0  0  0  0  0  0  0  0  0  0  0
   -1.0710   11.8370   -4.4910 C   0  0  0  0  0  0  0  0  0  0  0  0
   -2.7210   14.3450   -3.2010 C   0  0  0  0  0  0  0  0  0  0  0  0
   -0.6580   15.1920   -0.9550 O   0  0  0  0  0  0  0  0  0  0  0  0
    1.5780   15.4080   -4.3630 C   0  0  0  0  0  0  0  0  0  0  0  0
   -0.3490   14.1990   -5.1550 C   0  0  0  0  0  0  0  0  0  0  0  0
   -0.5310   12.1750   -5.7690 C   0  0  0  0  0  0  0  0  0  0  0  0
   -1.8040   10.6350   -4.4570 C   0  0  0  0  0  0  0  0  0  0  0  0
    0.8090   16.5800   -4.3610 C   0  0  0  0  0  0  0  0  0  0  0  0
   -1.1030   15.3770   -5.1400 C   0  0  0  0  0  0  0  0  0  0  0  0
   -0.7110   11.3680   -6.9060 C   0  0  0  0  0  0  0  0  0  0  0  0
   -1.9890    9.8250   -5.5910 C   0  0  0  0  0  0  0  0  0  0  0  0
    1.3190   17.7830   -3.9870 O   0  0  0  0  0  0  0  0  0  0  0  0
   -0.5200   16.5650   -4.7460 C   0  0  0  0  0  0  0  0  0  0  0  0
   -1.4420   10.1920   -6.8110 C   0  0  0  0  0  0  0  0  0  0  0  0
   -1.6700    9.1950   -8.1960 Cl  0  0  0  0  0  0  0  0  0  0  0  0
  1  2  1  0
  2  3  2  0
  1  4  2  3
  2  5  1  0
  4  6  1  0
  4  7  1  0
  5  8  1  0
  6  9  1  0
  7 10  1  0
  9 10  1  0
  6 11  1  0
  9 12  1  1
 10 13  2  0
  8 14  2  0
  8 15  1  0
 11 16  2  0
 11 17  1  0
 14 18  1  0
 15 19  2  0
 16 20  1  0
 17 21  2  0
 18 22  1  0
 18 23  2  0
 19 23  1  0
 20 24  2  0
 21 24  1  0
 24 25  1  0
M  END
