mac-x0451-mac-x0379
     RDKit          3D

 14 15  0  0  0  0  0  0  0  0999 V2000
   -6.3930   14.7220    2.8980 N   0  0  0  0  0  0  0  0  0  0  0  0
   -5.5560   14.7500    1.8440 C   0  0  0  0  0  0  0  0  0  0  0  0
   -6.0010   14.9570    0.6520 N   0  0  0  0  0  0  0  0  0  0  0  0
   -3.8540   14.5280    1.9410 S   0  0  0  0  0  0  0  0  0  0  0  0
   -4.9650   14.9530   -0.2540 C   0  0  0  0  0  0  0  0  0  0  0  0
   -3.7040   14.7290    0.2520 C   0  0  0  0  0  0  0  0  0  0  0  0
   -5.1410   15.1560   -1.6080 C   0  0  0  0  0  0  0  0  0  0  0  0
   -2.5590   14.6900   -0.5640 C   0  0  0  0  0  0  0  0  0  0  0  0
   -6.5150   15.3940   -2.1000 C   0  0  0  0  0  0  0  0  0  0  0  0
   -4.0170   15.1260   -2.4640 C   0  0  0  0  0  0  0  0  0  0  0  0
   -2.7360   14.8910   -1.9460 C   0  0  0  0  0  0  0  0  0  0  0  0
   -1.5640   14.8600   -2.8750 C   0  0  0  0  0  0  0  0  0  0  0  0
   -1.6530   14.7230   -4.0850 O   0  0  0  0  0  0  0  0  0  0  0  0
   -0.3720   15.0060   -2.2510 O   0  0  0  0  0  0  0  0  0  0  0  0
  1  2  1  0
  2  3  2  0
  2  4  1  0
  3  5  1  0
  4  6  1  0
  5  6  2  0
  5  7  1  0
  6  8  1  0
  7  9  1  0
  7 10  2  0
  8 11  2  0
 10 11  1  0
 11 12  1  0
 12 13  2  0
 12 14  1  0
M  END
