mac-x0131-mac-x0358
     RDKit          3D

 28 31  0  0  0  0  0  0  0  0999 V2000
   -3.4730   15.3540   -3.9070 C   0  0  0  0  0  0  0  0  0  0  0  0
   -3.0160   15.2030   -2.5100 C   0  0  0  0  0  0  0  0  0  0  0  0
   -3.7810   15.2470   -1.3630 C   0  0  0  0  0  0  0  0  0  0  0  0
   -1.6990   14.9970   -2.0860 N   0  0  0  0  0  0  0  0  0  0  0  0
   -5.2520   15.4640   -1.2770 C   0  0  0  0  0  0  0  0  0  0  0  0
   -0.4540   14.8900   -2.7660 C   0  0  0  0  0  0  0  0  0  0  0  0
   -2.8900   15.0510   -0.2690 C   0  0  0  0  0  0  0  0  0  0  0  0
   -1.6300   14.8850   -0.7680 C   0  0  0  0  0  0  0  0  0  0  0  0
   -2.9810   14.9990    1.0990 C   0  0  0  0  0  0  0  0  0  0  0  0
   -0.4870   14.6650   -0.1140 N   0  0  0  0  0  0  0  0  0  0  0  0
   -0.2390   13.4900   -2.9330 C   0  0  0  0  0  0  0  0  0  0  0  0
   -4.1850   15.1980    1.7300 N   0  0  0  0  0  0  0  0  0  0  0  0
   -1.8670   14.7620    1.8310 N   0  0  0  0  0  0  0  0  0  0  0  0
   -0.6930   14.6100    1.1930 C   0  0  0  0  0  0  0  0  0  0  0  0
   -0.6860   12.7220   -3.8610 C   0  0  0  0  0  0  0  0  0  0  0  0
    0.4990   12.7820   -2.0430 O   0  0  0  0  0  0  0  0  0  0  0  0
    0.5000   11.5090   -2.4910 C   0  0  0  0  0  0  0  0  0  0  0  0
   -0.2010   11.4680   -3.6050 C   0  0  0  0  0  0  0  0  0  0  0  0
   -1.5260   13.2710   -4.8460 C   0  0  0  0  0  0  0  0  0  0  0  0
   -2.2240   12.4580   -5.7010 C   0  0  0  0  0  0  0  0  0  0  0  0
   -1.6660   14.6620   -4.8990 C   0  0  0  0  0  0  0  0  0  0  0  0
   -0.4420   10.4690   -4.4060 N   0  0  0  0  0  0  0  0  0  0  0  0
   -2.0660   11.1010   -5.6310 O   0  0  0  0  0  0  0  0  0  0  0  0
   -3.0940   13.0170   -6.6210 C   0  0  0  0  0  0  0  0  0  0  0  0
   -2.5400   15.2290   -5.8110 C   0  0  0  0  0  0  0  0  0  0  0  0
    0.2800   11.0710   -5.2500 C   0  0  0  0  0  0  0  0  0  0  0  0
   -3.2560   14.4040   -6.6700 C   0  0  0  0  0  0  0  0  0  0  0  0
    0.8850   12.2190   -4.8270 O   0  0  0  0  0  0  0  0  0  0  0  0
  1  2  1  0
  2  3  2  0
  2  4  1  0
  3  5  1  0
  4  6  1  0
  3  7  1  0
  4  8  1  0
  7  8  2  0
  7  9  1  0
  8 10  1  0
  6 11  1  0
  9 12  1  0
  9 13  2  0
 10 14  2  0
 13 14  1  0
 11 15  2  0
 11 16  1  0
 16 17  1  0
 15 18  1  0
 17 18  2  0
 15 19  1  0
 19 20  2  0
 19 21  1  0
 18 22  1  0
 20 23  1  0
 20 24  1  0
 21 25  2  0
 22 26  2  3
 24 27  2  0
 25 27  1  0
 26 28  1  0
M  END
