mac-x0398-mac-x0565
     RDKit          3D

 22 24  0  0  0  0  0  0  0  0999 V2000
   -5.7170   14.9090    1.3080 N   0  0  0  0  0  0  0  0  0  0  0  0
   -6.5860   14.2590    0.4470 C   0  0  0  0  0  0  0  0  0  0  0  0
   -7.7360   13.8740    0.6010 O   0  0  0  0  0  0  0  0  0  0  0  0
   -4.5710   15.1820    0.5850 C   0  0  0  0  0  0  0  0  0  0  0  0
   -4.7370   15.5430   -0.7390 C   0  0  0  0  0  0  0  0  0  0  0  0
   -3.2920   15.0700    1.1290 C   0  0  0  0  0  0  0  0  0  0  0  0
   -5.8570   14.0880   -0.8720 C   0  0  0  0  0  0  0  0  0  0  0  0
   -3.6550   15.7700   -1.5480 C   0  0  0  0  0  0  0  0  0  0  0  0
   -2.1820   15.3120    0.3030 C   0  0  0  0  0  0  0  0  0  0  0  0
   -4.5890   13.4570   -0.8330 C   0  0  0  0  0  0  0  0  0  0  0  0
   -6.3740   14.5480   -2.1150 C   0  0  0  0  0  0  0  0  0  0  0  0
   -3.9340   16.0940   -2.8440 O   0  0  0  0  0  0  0  0  0  0  0  0
   -2.3740   15.6560   -1.0530 C   0  0  0  0  0  0  0  0  0  0  0  0
   -3.8830   13.3240   -2.0190 C   0  0  0  0  0  0  0  0  0  0  0  0
   -5.6310   14.3880   -3.3010 C   0  0  0  0  0  0  0  0  0  0  0  0
   -1.2070   15.8800   -1.9290 C   0  0  0  0  0  0  0  0  0  0  0  0
   -4.3900   13.7790   -3.2200 C   0  0  0  0  0  0  0  0  0  0  0  0
   -2.6460   12.7630   -2.1760 O   0  0  0  0  0  0  0  0  0  0  0  0
   -1.2560   16.1540   -3.1180 O   0  0  0  0  0  0  0  0  0  0  0  0
   -0.0320   15.7280   -1.3050 O   0  0  0  0  0  0  0  0  0  0  0  0
   -3.5280   13.5520   -4.2560 O   0  0  0  0  0  0  0  0  0  0  0  0
   -2.3360   13.2520   -3.4990 C   0  0  0  0  0  0  0  0  0  0  0  0
  1  2  1  0
  2  3  2  0
  1  4  1  0
  4  5  2  0
  4  6  1  0
  2  7  1  0
  5  8  1  0
  6  9  2  0
  7 10  2  0
  7 11  1  0
  8 12  1  0
  8 13  2  0
  9 13  1  0
 10 14  1  0
 11 15  2  0
 13 16  1  0
 14 17  2  0
 15 17  1  0
 14 18  1  0
 16 19  2  0
 16 20  1  0
 17 21  1  0
 18 22  1  0
 21 22  1  0
M  END
