mac-x0576-diamond-x0253_0_A
     RDKit          3D

 29 31  0  0  0  0  0  0  0  0999 V2000
    0.0280   14.0920    1.7660 N   0  0  0  0  0  0  0  0  0  0  0  0
   -0.7440   14.9500    0.9270 C   0  0  2  0  0  0  0  0  0  0  0  0
   -2.0130   14.8110    1.5670 N   0  0  0  0  0  0  0  0  0  0  0  0
   -0.5830   14.7600   -0.4650 N   0  0  0  0  0  0  0  0  0  0  0  0
   -1.5850   15.1290   -1.3150 C   0  0  0  0  0  0  0  0  0  0  0  0
   -3.0740   14.5870    0.6320 C   0  0  2  0  0  0  0  0  0  0  0  0
   -1.4880   15.2920   -2.5870 N   0  0  0  0  0  0  0  0  0  0  0  0
   -2.9570   15.3890   -0.6680 C   0  0  2  0  0  0  0  0  0  0  0  0
   -4.2860   14.9220    1.3160 N   0  0  0  0  0  0  0  0  0  0  0  0
   -0.2090   15.1010   -3.3070 C   0  0  0  0  0  0  0  0  0  0  0  0
   -5.4360   15.0120    0.5820 C   0  0  0  0  0  0  0  0  0  0  0  0
   -4.0640   15.0330   -1.5760 N   0  0  0  0  0  0  0  0  0  0  0  0
   -6.5200   14.7860    1.1220 O   0  0  0  0  0  0  0  0  0  0  0  0
    0.9400   14.5540   -2.4230 C   0  0  0  0  0  0  0  0  0  0  0  0
   -5.3350   15.3990   -0.9080 C   0  0  0  0  0  0  0  0  0  0  0  0
    0.7000   13.1430   -2.0930 N   0  0  0  0  0  0  0  0  0  0  0  0
    0.7770   12.2680   -3.0190 C   0  0  0  0  0  0  0  0  0  0  0  0
    0.5480   10.9560   -2.8190 O   0  0  0  0  0  0  0  0  0  0  0  0
    1.1300   12.6790   -4.4360 C   0  0  0  0  0  0  0  0  0  0  0  0
    0.3940   11.9410   -5.4440 N   0  0  0  0  0  0  0  0  0  0  0  0
    1.0850   11.6420   -6.5790 C   0  0  0  0  0  0  0  0  0  0  0  0
    2.1960   12.1110   -6.7030 O   0  0  0  0  0  0  0  0  0  0  0  0
    0.4590   10.7270   -7.5720 C   0  0  0  0  0  0  0  0  0  0  0  0
   -0.5200    9.8170   -7.1700 C   0  0  0  0  0  0  0  0  0  0  0  0
    0.8450   10.7680   -8.9200 C   0  0  0  0  0  0  0  0  0  0  0  0
   -1.1130    8.9520   -8.0970 C   0  0  0  0  0  0  0  0  0  0  0  0
    0.2590    9.9090   -9.8470 C   0  0  0  0  0  0  0  0  0  0  0  0
   -2.1640    7.9820   -7.6500 C   0  0  0  0  0  0  0  0  0  0  0  0
   -0.7170    9.0060   -9.4380 C   0  0  0  0  0  0  0  0  0  0  0  0
  2  1  1  1
  2  3  1  0
  2  4  1  0
  4  5  1  0
  6  3  1  1
  5  7  2  3
  5  8  1  0
  6  8  1  0
  6  9  1  0
  7 10  1  0
  9 11  1  0
  8 12  1  6
 11 13  2  0
 10 14  1  0
 11 15  1  0
 12 15  1  0
 14 16  1  0
 16 17  2  3
 17 18  1  0
 17 19  1  0
 19 20  1  0
 20 21  1  0
 21 22  2  0
 21 23  1  0
 23 24  2  0
 23 25  1  0
 24 26  1  0
 25 27  2  0
 26 28  1  0
 26 29  2  0
 27 29  1  0
M  END
