mac-x0178-mac-x0180
     RDKit          3D

 26 27  0  0  0  0  0  0  0  0999 V2000
   -0.4470   17.7720   -6.2550 N   0  0  0  0  0  0  0  0  0  0  0  0
   -1.8120   17.1070   -5.5100 S   0  0  0  0  0  0  0  0  0  0  0  0
   -2.7260   16.9520   -6.6240 O   0  0  0  0  0  0  0  0  0  0  0  0
   -2.0000   18.0640   -4.4520 O   0  0  0  0  0  0  0  0  0  0  0  0
   -1.2430   15.5160   -4.8970 C   0  0  0  0  0  0  0  0  0  0  0  0
   -1.4510   14.2990   -5.5440 C   0  0  0  0  0  0  0  0  0  0  0  0
   -0.5460   15.3630   -3.7360 C   0  0  0  0  0  0  0  0  0  0  0  0
   -0.1400   16.1840   -2.8120 N   0  0  0  0  0  0  0  0  0  0  0  0
   -0.9500   13.0840   -5.0290 C   0  0  0  0  0  0  0  0  0  0  0  0
   -0.0800   14.1880   -3.2550 C   0  0  0  0  0  0  0  0  0  0  0  0
   -0.8540   16.1500   -1.7780 C   0  0  0  0  0  0  0  0  0  0  0  0
   -0.2450   13.0520   -3.8590 C   0  0  0  0  0  0  0  0  0  0  0  0
    0.3400   11.8700   -3.2180 C   0  0  0  0  0  0  0  0  0  0  0  0
   -0.3950   16.8180   -0.7690 O   0  0  0  0  0  0  0  0  0  0  0  0
   -2.1010   15.5810   -1.3010 C   0  0  0  0  0  0  0  0  0  0  0  0
    1.1430   11.9300   -2.2990 O   0  0  0  0  0  0  0  0  0  0  0  0
   -0.0910   10.7190   -3.7270 O   0  0  0  0  0  0  0  0  0  0  0  0
   -2.1700   15.3060    0.0570 C   0  0  0  0  0  0  0  0  0  0  0  0
   -3.1950   15.3550   -2.1390 C   0  0  0  0  0  0  0  0  0  0  0  0
   -3.3460   14.8180    0.5980 C   0  0  0  0  0  0  0  0  0  0  0  0
   -4.3790   14.8620   -1.5860 C   0  0  0  0  0  0  0  0  0  0  0  0
   -4.4600   14.6000   -0.2120 C   0  0  0  0  0  0  0  0  0  0  0  0
   -5.6130   14.1260    0.4310 N   0  0  0  0  0  0  0  0  0  0  0  0
   -6.9000   14.5520    0.1650 C   0  0  0  0  0  0  0  0  0  0  0  0
   -7.7930   14.5000    1.3790 C   0  0  0  0  0  0  0  0  0  0  0  0
   -7.3290   14.9410   -0.9110 O   0  0  0  0  0  0  0  0  0  0  0  0
  2  1  1  0
  2  3  2  0
  2  4  2  0
  2  5  1  0
  5  6  2  0
  5  7  1  0
  7  8  1  0
  6  9  1  0
  7 10  2  0
  8 11  2  3
  9 12  2  0
 10 12  1  0
 12 13  1  0
 11 14  1  0
 11 15  1  0
 13 16  2  0
 13 17  1  0
 15 18  2  0
 15 19  1  0
 18 20  1  0
 19 21  2  0
 20 22  2  0
 21 22  1  0
 22 23  1  0
 23 24  1  0
 24 25  1  0
 24 26  2  0
M  END
