mac-x0510-diamond-x0905_0_A
     RDKit          3D

 12 13  0  0  0  0  0  0  0  0999 V2000
   -6.0560   14.9900    1.1540 O   0  0  0  0  0  0  0  0  0  0  0  0
   -4.9050   15.0330    0.7180 C   0  0  0  0  0  0  0  0  0  0  0  0
   -4.7440   15.1890   -0.6560 N   0  0  0  0  0  0  0  0  0  0  0  0
   -3.8110   14.9130    1.5420 N   0  0  0  0  0  0  0  0  0  0  0  0
   -5.9610   15.0540   -1.3860 O   0  0  0  0  0  0  0  0  0  0  0  0
   -2.6600   14.8460    1.0160 C   0  0  0  0  0  0  0  0  0  0  0  0
   -3.5490   15.1200   -1.3580 C   0  0  0  0  0  0  0  0  0  0  0  0
   -3.3390   15.2200   -2.5510 O   0  0  0  0  0  0  0  0  0  0  0  0
   -2.4210   14.9070   -0.4180 C   0  0  0  0  0  0  0  0  0  0  0  0
   -1.4750   14.6990    1.6590 N   0  0  0  0  0  0  0  0  0  0  0  0
   -1.1390   14.7660   -0.6090 N   0  0  0  0  0  0  0  0  0  0  0  0
   -0.6210   14.6560    0.6790 C   0  0  0  0  0  0  0  0  0  0  0  0
  1  2  2  0
  2  3  1  0
  2  4  1  0
  3  5  1  0
  4  6  2  0
  3  7  1  0
  7  8  2  0
  6  9  1  0
  7  9  1  0
  6 10  1  0
  9 11  2  0
 10 12  2  0
 11 12  1  0
M  END
