mac-x0223-mac-x0576
     RDKit          3D

 26 28  0  0  0  0  0  0  0  0999 V2000
    1.3180   18.4620   -5.8330 C   0  0  0  0  0  0  0  0  0  0  0  0
    0.0450   17.9500   -6.0900 O   0  0  0  0  0  0  0  0  0  0  0  0
   -0.2960   16.8880   -5.3270 C   0  0  0  0  0  0  0  0  0  0  0  0
   -1.5340   17.0480   -4.7850 C   0  0  0  0  0  0  0  0  0  0  0  0
    0.4360   15.7160   -5.0500 C   0  0  0  0  0  0  0  0  0  0  0  0
   -2.2790   18.1680   -5.0060 O   0  0  0  0  0  0  0  0  0  0  0  0
   -2.0650   16.1110   -3.9930 C   0  0  0  0  0  0  0  0  0  0  0  0
   -0.0940   14.7010   -4.2010 C   0  0  0  0  0  0  0  0  0  0  0  0
    0.7780   13.4680   -3.9470 C   0  0  0  0  0  0  0  0  0  0  0  0
   -1.3920   14.9600   -3.6680 C   0  0  0  0  0  0  0  0  0  0  0  0
    0.2950   12.4290   -2.9490 C   0  0  0  0  0  0  0  0  0  0  0  0
   -2.2340   14.2910   -2.7990 N   0  0  0  0  0  0  0  0  0  0  0  0
   -0.3430   11.4160   -3.1800 O   0  0  0  0  0  0  0  0  0  0  0  0
    0.6650   12.7010   -1.6660 O   0  0  0  0  0  0  0  0  0  0  0  0
   -2.0310   14.3560   -1.5070 C   0  0  0  0  0  0  0  0  0  0  0  0
   -0.9860   14.9020   -0.8010 N   0  0  0  0  0  0  0  0  0  0  0  0
   -3.1950   13.7790   -0.6800 C   0  0  1  0  0  0  0  0  0  0  0  0
   -0.8380   14.4610    0.5310 C   0  0  1  0  0  0  0  0  0  0  0  0
   -3.1170   14.1400    0.8530 C   0  0  1  0  0  0  0  0  0  0  0  0
   -4.4540   14.1620   -1.3810 N   0  0  0  0  0  0  0  0  0  0  0  0
    0.2460   14.9840    1.2620 N   0  0  0  0  0  0  0  0  0  0  0  0
   -1.9430   14.8130    1.3610 N   0  0  0  0  0  0  0  0  0  0  0  0
   -4.2010   14.8850    1.4200 N   0  0  0  0  0  0  0  0  0  0  0  0
   -5.1310   15.3130   -0.7680 C   0  0  0  0  0  0  0  0  0  0  0  0
   -5.3410   15.0420    0.7010 C   0  0  0  0  0  0  0  0  0  0  0  0
   -6.4440   14.9370    1.2290 O   0  0  0  0  0  0  0  0  0  0  0  0
  1  2  1  0
  2  3  1  0
  3  4  2  0
  3  5  1  0
  4  6  1  0
  4  7  1  0
  5  8  2  0
  8  9  1  0
  7 10  2  0
  8 10  1  0
  9 11  1  0
 10 12  1  0
 11 13  2  0
 11 14  1  0
 12 15  2  3
 15 16  1  0
 15 17  1  0
 16 18  1  0
 17 19  1  0
 17 20  1  6
 18 21  1  1
 18 22  1  0
 19 22  1  6
 19 23  1  0
 20 24  1  0
 23 25  1  0
 24 25  1  0
 25 26  2  0
M  END
