mac-x0263-mac-x0392
     RDKit          3D

 23 25  0  0  0  0  0  0  0  0999 V2000
  -11.4620   14.2980    2.5540 O   0  0  0  0  0  0  0  0  0  0  0  0
  -10.7230   15.4060    2.7530 C   0  0  0  0  0  0  0  0  0  0  0  0
  -11.0410   16.2110    3.6090 O   0  0  0  0  0  0  0  0  0  0  0  0
   -9.5410   15.5150    1.8290 C   0  0  0  0  0  0  0  0  0  0  0  0
   -8.4360   14.5120    2.1410 C   0  0  0  0  0  0  0  0  0  0  0  0
   -7.3350   14.6610    1.1340 C   0  0  0  0  0  0  0  0  0  0  0  0
   -7.5550   14.9160   -0.1120 N   0  0  0  0  0  0  0  0  0  0  0  0
   -6.0050   14.5400    1.5080 N   0  0  0  0  0  0  0  0  0  0  0  0
   -6.3050   14.9560   -0.6660 C   0  0  0  0  0  0  0  0  0  0  0  0
   -5.3170   14.7290    0.3960 C   0  0  0  0  0  0  0  0  0  0  0  0
   -6.1400   15.1530   -1.9530 C   0  0  0  0  0  0  0  0  0  0  0  0
   -3.8260   14.6760    0.2210 C   0  0  0  0  0  0  0  0  0  0  0  0
   -4.9370   15.1810   -2.6800 C   0  0  0  0  0  0  0  0  0  0  0  0
   -3.1390   14.8010   -0.9930 C   0  0  0  0  0  0  0  0  0  0  0  0
   -3.1440   14.4610    1.3750 N   0  0  0  0  0  0  0  0  0  0  0  0
   -3.7100   15.0370   -2.2810 C   0  0  0  0  0  0  0  0  0  0  0  0
   -1.7370   14.6720   -0.9880 C   0  0  0  0  0  0  0  0  0  0  0  0
   -1.7920   14.3560    1.3210 C   0  0  0  0  0  0  0  0  0  0  0  0
   -0.9490   14.7640   -2.2550 C   0  0  0  0  0  0  0  0  0  0  0  0
   -1.0320   14.4480    0.1770 C   0  0  0  0  0  0  0  0  0  0  0  0
    0.3560   14.3190    0.2070 N   0  0  0  0  0  0  0  0  0  0  0  0
   -1.3990   14.6800   -3.3840 O   0  0  0  0  0  0  0  0  0  0  0  0
    0.3620   14.9510   -2.0480 O   0  0  0  0  0  0  0  0  0  0  0  0
  1  2  1  0
  2  3  2  0
  2  4  1  0
  4  5  1  0
  5  6  1  0
  6  7  2  0
  6  8  1  0
  7  9  1  0
  8 10  2  0
  9 10  1  0
  9 11  2  0
 10 12  1  0
 11 13  1  0
 12 14  2  0
 12 15  1  0
 13 16  2  0
 14 16  1  0
 14 17  1  0
 15 18  2  0
 17 19  1  0
 17 20  2  0
 18 20  1  0
 20 21  1  0
 19 22  2  0
 19 23  1  0
M  END
