mac-x0379-diamond-x0900_0_A
     RDKit          3D

 13 14  0  0  0  0  0  0  0  0999 V2000
   -1.0590   14.8050   -3.4120 C   0  0  0  0  0  0  0  0  0  0  0  0
   -0.0310   14.9550   -2.5410 O   0  0  0  0  0  0  0  0  0  0  0  0
   -0.8670   14.5810   -4.5910 O   0  0  0  0  0  0  0  0  0  0  0  0
   -2.3520   14.9480   -2.8070 C   0  0  0  0  0  0  0  0  0  0  0  0
   -3.5510   15.1560   -3.4480 C   0  0  0  0  0  0  0  0  0  0  0  0
   -2.6150   14.8890   -1.1290 S   0  0  0  0  0  0  0  0  0  0  0  0
   -4.2920   15.1570   -1.3940 C   0  0  0  0  0  0  0  0  0  0  0  0
   -4.6560   15.2700   -2.6370 N   0  0  0  0  0  0  0  0  0  0  0  0
   -5.2090   15.2330   -0.2200 C   0  0  1  0  0  0  0  0  0  0  0  0
   -5.3710   13.8920    0.2600 N   0  0  0  0  0  0  0  0  0  0  0  0
   -4.5570   15.8310    1.0180 C   0  0  0  0  0  0  0  0  0  0  0  0
   -3.4540   14.8770    1.3200 C   0  0  0  0  0  0  0  0  0  0  0  0
   -4.0160   13.6000    0.7370 C   0  0  0  0  0  0  0  0  0  0  0  0
  1  2  1  0
  1  3  2  0
  1  4  1  0
  4  5  2  0
  4  6  1  0
  6  7  1  0
  5  8  1  0
  7  8  2  0
  9  7  1  6
  9 10  1  0
  9 11  1  0
 11 12  1  0
 10 13  1  0
 12 13  1  0
M  END
