mac-x0188-diamond-x0962_1_A
     RDKit          3D

 22 24  0  0  0  0  0  0  0  0999 V2000
    0.9990   12.8670   -5.5100 C   0  0  0  0  0  0  0  0  0  0  0  0
   -0.1250   13.4450   -4.7500 C   0  0  0  0  0  0  0  0  0  0  0  0
   -1.3110   13.5970   -5.4050 O   0  0  0  0  0  0  0  0  0  0  0  0
   -0.2700   13.8910   -3.4680 C   0  0  0  0  0  0  0  0  0  0  0  0
    0.7280   13.9150   -2.4300 C   0  0  0  0  0  0  0  0  0  0  0  0
   -2.2560   14.1520   -4.5480 N   0  0  0  0  0  0  0  0  0  0  0  0
   -1.6190   14.3290   -3.3790 C   0  0  0  0  0  0  0  0  0  0  0  0
    1.4090   14.8940   -2.1740 O   0  0  0  0  0  0  0  0  0  0  0  0
    0.8580   12.7490   -1.7500 O   0  0  0  0  0  0  0  0  0  0  0  0
   -2.1900   14.8960   -2.1600 C   0  0  0  0  0  0  0  0  0  0  0  0
   -3.5060   15.0410   -1.7310 C   0  0  0  0  0  0  0  0  0  0  0  0
   -1.2440   15.3660   -1.2410 C   0  0  0  0  0  0  0  0  0  0  0  0
   -4.7460   14.7610   -2.1350 C   0  0  0  0  0  0  0  0  0  0  0  0
   -3.8370   15.6050   -0.5190 C   0  0  0  0  0  0  0  0  0  0  0  0
   -1.6020   15.9210   -0.0150 C   0  0  0  0  0  0  0  0  0  0  0  0
   -5.7770   14.6240   -1.6540 C   0  0  0  0  0  0  0  0  0  0  0  0
   -2.9140   16.0410    0.3420 C   0  0  0  0  0  0  0  0  0  0  0  0
   -6.6130   14.5790   -0.5380 C   0  0  0  0  0  0  0  0  0  0  0  0
   -6.1070   14.4880    0.7420 N   0  0  0  0  0  0  0  0  0  0  0  0
   -7.9570   14.6150   -0.3950 C   0  0  0  0  0  0  0  0  0  0  0  0
   -7.1540   14.4680    1.6000 C   0  0  0  0  0  0  0  0  0  0  0  0
   -8.2920   14.5440    0.9400 N   0  0  0  0  0  0  0  0  0  0  0  0
  1  2  1  0
  2  3  1  0
  2  4  2  0
  4  5  1  0
  3  6  1  0
  4  7  1  0
  6  7  2  0
  5  8  2  0
  5  9  1  0
  7 10  1  0
 10 11  1  0
 10 12  2  0
 11 13  1  0
 11 14  2  0
 12 15  1  0
 13 16  3  0
 14 17  1  0
 15 17  2  0
 16 18  1  0
 18 19  1  0
 18 20  2  0
 19 21  1  0
 20 22  1  0
 21 22  2  0
M  END
