mac-x0365-mac-x0451
     RDKit          3D

 15 16  0  0  0  0  0  0  0  0999 V2000
   -0.7180   14.6460   -1.5500 O   0  0  0  0  0  0  0  0  0  0  0  0
   -1.7510   14.5460   -2.4100 C   0  0  0  0  0  0  0  0  0  0  0  0
   -1.6100   14.3150   -3.5970 O   0  0  0  0  0  0  0  0  0  0  0  0
   -3.0730   14.7740   -1.7710 C   0  0  0  0  0  0  0  0  0  0  0  0
   -4.3140   14.5480   -2.4740 C   0  0  0  0  0  0  0  0  0  0  0  0
   -3.0710   15.2080   -0.5080 C   0  0  0  0  0  0  0  0  0  0  0  0
   -5.5040   14.7600   -1.9000 C   0  0  0  0  0  0  0  0  0  0  0  0
   -4.3160   15.5360    0.2410 C   0  0  1  0  0  0  0  0  0  0  0  0
   -6.6140   14.5210   -2.6300 F   0  0  0  0  0  0  0  0  0  0  0  0
   -5.6590   15.2810   -0.4980 C   0  0  1  0  0  0  0  0  0  0  0  0
   -4.3470   14.5280    1.7190 S   0  0  0  0  0  0  0  0  0  0  0  0
   -6.2430   16.5090   -0.8360 O   0  0  0  0  0  0  0  0  0  0  0  0
   -6.0420   14.2880    1.5190 C   0  0  0  0  0  0  0  0  0  0  0  0
   -6.6080   14.6260    0.4100 N   0  0  0  0  0  0  0  0  0  0  0  0
   -6.6900   13.7350    2.5660 N   0  0  0  0  0  0  0  0  0  0  0  0
  1  2  1  0
  2  3  2  0
  2  4  1  0
  4  5  1  0
  4  6  2  0
  5  7  2  0
  8  6  1  6
  7  9  1  0
  7 10  1  0
  8 10  1  0
  8 11  1  0
 10 12  1  6
 11 13  1  0
 10 14  1  0
 13 14  2  0
 13 15  1  0
M  END
