mac-x0439-mac-x0163
     RDKit          3D

 30 34  0  0  0  0  0  0  0  0999 V2000
   -3.0630   15.7870   -5.2000 Cl  0  0  0  0  0  0  0  0  0  0  0  0
   -1.5740   16.6310   -5.3190 C   0  0  0  0  0  0  0  0  0  0  0  0
   -0.2670   15.9070   -5.1400 C   0  0  2  0  0  0  0  0  0  0  0  0
   -1.5770   17.9360   -5.6110 C   0  0  0  0  0  0  0  0  0  0  0  0
    0.0960   14.7760   -4.2440 C   0  0  0  0  0  0  0  0  0  0  0  0
    0.8090   16.8370   -4.7120 C   0  0  0  0  0  0  0  0  0  0  0  0
   -0.3360   18.6660   -5.7380 C   0  0  0  0  0  0  0  0  0  0  0  0
    1.2390   15.0680   -3.5830 C   0  0  0  0  0  0  0  0  0  0  0  0
    1.6400   16.3430   -3.8630 N   0  0  0  0  0  0  0  0  0  0  0  0
    0.8450   18.1850   -5.3120 C   0  0  0  0  0  0  0  0  0  0  0  0
    2.0280   14.1410   -2.6550 C   0  0  0  0  0  0  0  0  0  0  0  0
    3.3240   14.2290   -2.8350 O   0  0  0  0  0  0  0  0  0  0  0  0
    1.5920   13.3470   -1.7840 N   0  0  0  0  0  0  0  0  0  0  0  0
    0.2210   13.4190   -1.6100 C   0  0  2  0  0  0  0  0  0  0  0  0
   -0.7870   12.9570   -2.6820 C   0  0  0  0  0  0  0  0  0  0  0  0
   -0.0700   14.7410   -2.3570 C   0  0  0  0  0  0  0  0  0  0  0  0
   -0.1150   12.8750   -4.0820 C   0  0  0  0  0  0  0  0  0  0  0  0
   -1.8660   11.8950   -2.5180 C   0  0  0  0  0  0  0  0  0  0  0  0
   -1.3350   14.2550   -2.1720 N   0  0  0  0  0  0  0  0  0  0  0  0
   -1.6970   14.4670   -0.8490 C   0  0  0  0  0  0  0  0  0  0  0  0
   -2.8350   12.1280   -3.6870 C   0  0  0  0  0  0  0  0  0  0  0  0
   -1.1090   13.2050   -5.1800 C   0  0  0  0  0  0  0  0  0  0  0  0
   -2.9070   14.8930   -0.3420 C   0  0  0  0  0  0  0  0  0  0  0  0
   -0.6530   14.2150   -0.0260 N   0  0  0  0  0  0  0  0  0  0  0  0
   -2.4710   13.3710   -4.5330 C   0  0  0  0  0  0  0  0  0  0  0  0
   -4.2950   15.2530   -1.3000 Cl  0  0  0  0  0  0  0  0  0  0  0  0
   -2.9510   15.0300    1.0470 C   0  0  0  0  0  0  0  0  0  0  0  0
   -0.7960   14.3700    1.2750 C   0  0  0  0  0  0  0  0  0  0  0  0
   -4.0990   15.4650    1.7120 N   0  0  0  0  0  0  0  0  0  0  0  0
   -1.9130   14.7660    1.8620 N   0  0  0  0  0  0  0  0  0  0  0  0
  1  2  1  0
  2  3  1  0
  2  4  2  0
  3  5  1  1
  3  6  1  0
  4  7  1  0
  5  8  2  0
  6  9  2  0
  8  9  1  0
  6 10  1  0
  7 10  2  0
  8 11  1  0
 11 12  1  0
 11 13  2  3
 14 13  1  6
 14 15  1  0
 14 16  1  0
 15 17  1  0
 15 18  1  0
 15 19  1  0
 16 19  1  0
 19 20  1  0
 18 21  1  0
 17 22  1  0
 20 23  2  0
 20 24  1  0
 21 25  1  0
 22 25  1  0
 23 26  1  0
 23 27  1  0
 24 28  2  0
 27 29  1  0
 27 30  2  0
 28 30  1  0
M  END
