mac-x0193-diamond-x0950_1_A
     RDKit          3D

 15 15  0  0  0  0  0  0  0  0999 V2000
    0.3760   10.8500   -3.1620 O   0  0  0  0  0  0  0  0  0  0  0  0
    0.8810   12.0810   -3.3900 C   0  0  0  0  0  0  0  0  0  0  0  0
    1.1730   12.7970   -2.4470 O   0  0  0  0  0  0  0  0  0  0  0  0
    1.0420   12.4370   -4.8720 C   0  0  1  0  0  0  0  0  0  0  0  0
    0.1270   11.6290   -5.6950 N   0  0  0  0  0  0  0  0  0  0  0  0
    0.7970   13.9260   -5.0620 C   0  0  0  0  0  0  0  0  0  0  0  0
    0.5960   11.2040   -6.9180 C   0  0  0  0  0  0  0  0  0  0  0  0
    1.7210   11.4420   -7.2560 O   0  0  0  0  0  0  0  0  0  0  0  0
   -0.3320   10.5070   -7.6760 N   0  0  0  0  0  0  0  0  0  0  0  0
   -0.0100    9.5340   -8.7390 C   0  0  0  0  0  0  0  0  0  0  0  0
    1.4630    9.2460   -8.7930 C   0  0  0  0  0  0  0  0  0  0  0  0
   -0.4770   10.0070  -10.1300 C   0  0  0  0  0  0  0  0  0  0  0  0
    1.8270    8.0820   -9.6960 C   0  0  0  0  0  0  0  0  0  0  0  0
    0.5070    9.6240  -11.2460 C   0  0  0  0  0  0  0  0  0  0  0  0
    1.1420    8.2400  -11.0530 C   0  0  0  0  0  0  0  0  0  0  0  0
  1  2  1  0
  2  3  2  0
  2  4  1  0
  4  5  1  0
  4  6  1  1
  5  7  1  0
  7  8  2  0
  7  9  1  0
  9 10  1  0
 10 11  1  0
 10 12  1  0
 11 13  1  0
 12 14  1  0
 13 15  1  0
 14 15  1  0
M  END
