mac-x0392-mac-x0568
     RDKit          3D

 20 21  0  0  0  0  0  0  0  0999 V2000
    1.0450   14.7210   -0.4400 N   0  0  0  0  0  0  0  0  0  0  0  0
   -0.2740   14.6190   -0.0580 C   0  0  0  0  0  0  0  0  0  0  0  0
   -0.6780   14.6330    1.2750 C   0  0  0  0  0  0  0  0  0  0  0  0
   -1.2370   14.4970   -1.0090 C   0  0  0  0  0  0  0  0  0  0  0  0
   -0.8960   14.4770   -2.4660 C   0  0  0  0  0  0  0  0  0  0  0  0
   -2.5430   14.3910   -0.6200 C   0  0  0  0  0  0  0  0  0  0  0  0
   -1.9460   14.5440    1.7040 N   0  0  0  0  0  0  0  0  0  0  0  0
   -1.6980   14.4510   -3.3860 O   0  0  0  0  0  0  0  0  0  0  0  0
    0.4220   14.4940   -2.7350 O   0  0  0  0  0  0  0  0  0  0  0  0
   -3.4400   14.2600   -1.6100 N   0  0  0  0  0  0  0  0  0  0  0  0
   -2.8660   14.4220    0.7280 C   0  0  0  0  0  0  0  0  0  0  0  0
   -4.4120   15.1290   -1.7800 C   0  0  0  0  0  0  0  0  0  0  0  0
   -4.4310   15.9620   -2.6350 O   0  0  0  0  0  0  0  0  0  0  0  0
   -5.5010   14.9720   -0.8200 C   0  0  0  0  0  0  0  0  0  0  0  0
   -6.8000   14.9120   -1.2510 C   0  0  0  0  0  0  0  0  0  0  0  0
   -5.2540   14.8650    0.5530 C   0  0  0  0  0  0  0  0  0  0  0  0
   -7.8530   14.7490   -0.4300 N   0  0  0  0  0  0  0  0  0  0  0  0
   -6.3230   14.6940    1.4230 C   0  0  0  0  0  0  0  0  0  0  0  0
   -7.6020   14.6400    0.8890 C   0  0  0  0  0  0  0  0  0  0  0  0
   -8.7810   14.4610    1.7840 C   0  0  0  0  0  0  0  0  0  0  0  0
  1  2  1  0
  2  3  2  0
  2  4  1  0
  4  5  1  0
  4  6  2  0
  3  7  1  0
  5  8  2  0
  5  9  1  0
  6 10  1  0
  6 11  1  0
  7 11  2  0
 10 12  1  0
 12 13  2  0
 12 14  1  0
 14 15  2  0
 14 16  1  0
 15 17  1  0
 16 18  2  0
 17 19  2  0
 18 19  1  0
 19 20  1  0
M  END
