mac-x0392-diamond-x0895_0_A
     RDKit          3D

 11 11  0  0  0  0  0  0  0  0999 V2000
    0.4600   14.5950   -0.2000 N   0  0  0  0  0  0  0  0  0  0  0  0
   -0.9920   14.3610   -0.1560 C   0  0  1  0  0  0  0  0  0  0  0  0
   -1.5700   14.6840    1.2320 C   0  0  0  0  0  0  0  0  0  0  0  0
   -1.6730   15.1960   -1.2440 C   0  0  1  0  0  0  0  0  0  0  0  0
   -1.1830   14.7540   -2.5920 C   0  0  0  0  0  0  0  0  0  0  0  0
   -3.1740   15.2060   -1.0930 C   0  0  0  0  0  0  0  0  0  0  0  0
   -3.0310   14.5490    1.3000 N   0  0  0  0  0  0  0  0  0  0  0  0
   -1.8780   14.5720   -3.5810 O   0  0  0  0  0  0  0  0  0  0  0  0
    0.1470   14.5580   -2.6770 O   0  0  0  0  0  0  0  0  0  0  0  0
   -3.9410   15.0740   -2.0500 O   0  0  0  0  0  0  0  0  0  0  0  0
   -3.7230   15.3880    0.3080 C   0  0  0  0  0  0  0  0  0  0  0  0
  2  1  1  1
  2  3  1  0
  2  4  1  0
  4  5  1  6
  4  6  1  0
  3  7  1  0
  5  8  2  0
  5  9  1  0
  6 10  2  0
  6 11  1  0
  7 11  1  0
M  END
