mac-x0360-diamond-x0465_0_A
     RDKit          3D

 27 28  0  0  0  0  0  0  0  0999 V2000
   -7.6430   11.6320    1.7110 Cl  0  0  0  0  0  0  0  0  0  0  0  0
   -6.4290   11.8890    0.5160 C   0  0  0  0  0  0  0  0  0  0  0  0
   -6.2530   10.9470   -0.4900 C   0  0  0  0  0  0  0  0  0  0  0  0
   -5.6370   13.0330    0.5680 C   0  0  0  0  0  0  0  0  0  0  0  0
   -4.6540   13.2290   -0.4100 C   0  0  0  0  0  0  0  0  0  0  0  0
   -5.2690   11.1460   -1.4550 C   0  0  0  0  0  0  0  0  0  0  0  0
   -5.0570    9.9630   -2.6870 Cl  0  0  0  0  0  0  0  0  0  0  0  0
   -3.6470   14.7040   -0.3590 S   0  0  0  0  0  0  0  0  0  0  0  0
   -4.4620   12.2850   -1.4280 C   0  0  0  0  0  0  0  0  0  0  0  0
   -2.3250   14.3400   -1.3400 N   0  0  0  0  0  0  0  0  0  0  0  0
   -4.4100   15.7690   -0.9670 O   0  0  0  0  0  0  0  0  0  0  0  0
   -3.1230   14.8290    0.9810 O   0  0  0  0  0  0  0  0  0  0  0  0
   -0.9890   14.3670   -0.6760 C   0  0  0  0  0  0  0  0  0  0  0  0
   -0.1320   13.1760   -1.1350 C   0  0  0  0  0  0  0  0  0  0  0  0
    0.2340   13.3960   -2.5390 N   0  0  0  0  0  0  0  0  0  0  0  0
    0.4900   12.3820   -3.2880 C   0  0  0  0  0  0  0  0  0  0  0  0
    0.8280   12.6260   -4.7580 C   0  0  1  0  0  0  0  0  0  0  0  0
    0.4720   11.0950   -2.8660 O   0  0  0  0  0  0  0  0  0  0  0  0
    2.2690   13.1060   -4.8020 C   0  0  0  0  0  0  0  0  0  0  0  0
    0.7160   11.4010   -5.4840 O   0  0  0  0  0  0  0  0  0  0  0  0
   -0.4700   10.7480   -5.7030 C   0  0  0  0  0  0  0  0  0  0  0  0
   -0.6600    9.7000   -6.6070 C   0  0  0  0  0  0  0  0  0  0  0  0
   -1.5680   11.1770   -4.9470 C   0  0  0  0  0  0  0  0  0  0  0  0
    0.3460    9.2410   -7.3650 F   0  0  0  0  0  0  0  0  0  0  0  0
   -1.8990    9.0880   -6.7590 C   0  0  0  0  0  0  0  0  0  0  0  0
   -2.8190   10.5650   -5.0960 C   0  0  0  0  0  0  0  0  0  0  0  0
   -2.9840    9.5180   -6.0020 C   0  0  0  0  0  0  0  0  0  0  0  0
  1  2  1  0
  2  3  2  0
  2  4  1  0
  4  5  2  0
  3  6  1  0
  6  7  1  0
  5  8  1  0
  5  9  1  0
  6  9  2  0
  8 10  1  0
  8 11  2  0
  8 12  2  0
 10 13  1  0
 13 14  1  0
 14 15  1  0
 15 16  2  3
 16 17  1  0
 16 18  1  0
 17 19  1  1
 17 20  1  0
 20 21  1  0
 21 22  2  0
 21 23  1  0
 22 24  1  0
 22 25  1  0
 23 26  2  0
 25 27  2  0
 26 27  1  0
M  END
