mac-x0161-diamond-x0844_0_A
     RDKit          3D

 27 30  0  0  0  0  0  0  0  0999 V2000
   -4.0940   15.6220    2.1380 N   0  0  0  0  0  0  0  0  0  0  0  0
   -3.3090   15.6690    0.9240 C   0  0  1  0  0  0  0  0  0  0  0  0
   -2.3960   14.4490    0.6550 C   0  0  1  0  0  0  0  0  0  0  0  0
   -4.2940   15.8440   -0.0910 N   0  0  0  0  0  0  0  0  0  0  0  0
   -3.9090   15.4340   -1.4290 C   0  0  0  0  0  0  0  0  0  0  0  0
   -1.7290   14.5880   -0.7270 C   0  0  1  0  0  0  0  0  0  0  0  0
   -1.2530   14.4170    1.6030 N   0  0  0  0  0  0  0  0  0  0  0  0
   -2.5150   15.2300   -1.7540 N   0  0  0  0  0  0  0  0  0  0  0  0
   -0.4270   15.1710   -0.4590 N   0  0  0  0  0  0  0  0  0  0  0  0
   -0.0500   14.5940    0.8020 C   0  0  0  0  0  0  0  0  0  0  0  0
   -2.3300   14.7710   -3.1700 C   0  0  2  0  0  0  0  0  0  0  0  0
   -3.6760   14.4270   -3.8960 C   0  0  0  0  0  0  0  0  0  0  0  0
   -1.3880   13.6490   -3.5190 C   0  0  0  0  0  0  0  0  0  0  0  0
   -4.7800   15.1710   -3.3640 O   0  0  0  0  0  0  0  0  0  0  0  0
   -1.3360   12.7830   -4.5870 C   0  0  0  0  0  0  0  0  0  0  0  0
   -0.3580   13.3540   -2.6690 O   0  0  0  0  0  0  0  0  0  0  0  0
    0.3720   12.2810   -3.1720 N   0  0  0  0  0  0  0  0  0  0  0  0
   -0.2410   11.9590   -4.3160 C   0  0  0  0  0  0  0  0  0  0  0  0
   -5.7320   14.4370   -2.5620 C   0  0  1  0  0  0  0  0  0  0  0  0
    0.1570   10.9470   -5.1070 O   0  0  0  0  0  0  0  0  0  0  0  0
   -4.9800   13.6140   -1.5600 C   0  0  0  0  0  0  0  0  0  0  0  0
   -6.7330   15.3650   -1.8660 C   0  0  0  0  0  0  0  0  0  0  0  0
   -0.7690    9.8640   -5.1510 C   0  0  0  0  0  0  0  0  0  0  0  0
   -5.5350   13.2570   -0.3970 C   0  0  0  0  0  0  0  0  0  0  0  0
   -7.4180   14.7370   -0.6700 C   0  0  0  0  0  0  0  0  0  0  0  0
   -8.4810   15.1650   -0.2120 O   0  0  0  0  0  0  0  0  0  0  0  0
   -6.8100   13.6460   -0.0980 N   0  0  0  0  0  0  0  0  0  0  0  0
  2  1  1  1
  2  3  1  0
  2  4  1  0
  4  5  1  0
  3  6  1  0
  3  7  1  1
  5  8  1  0
  6  8  1  0
  6  9  1  1
  7 10  1  0
  9 10  1  0
  8 11  1  0
 11 12  1  1
 11 13  1  0
 12 14  1  0
 13 15  2  0
 13 16  1  0
 16 17  1  0
 15 18  1  0
 17 18  2  0
 19 14  1  1
 18 20  1  0
 19 21  1  0
 19 22  1  0
 20 23  1  0
 21 24  2  0
 22 25  1  0
 25 26  2  0
 24 27  1  0
 25 27  1  0
M  END
