mac-x0213-mac-x0555
     RDKit          3D

 26 29  0  0  0  0  0  0  0  0999 V2000
   -0.0490   11.4960   -2.8430 O   0  0  0  0  0  0  0  0  0  0  0  0
    0.5830   12.7610   -2.7830 C   0  0  0  0  0  0  0  0  0  0  0  0
    1.9590   12.5050   -2.7380 O   0  0  0  0  0  0  0  0  0  0  0  0
    0.2590   13.4190   -1.4440 C   0  0  0  0  0  0  0  0  0  0  0  0
    0.2810   13.7150   -3.9880 C   0  0  0  0  0  0  0  0  0  0  0  0
   -1.2160   13.4070   -1.1130 C   0  0  0  0  0  0  0  0  0  0  0  0
   -1.2140   14.1130   -4.1500 C   0  0  0  0  0  0  0  0  0  0  0  0
    1.0800   15.0510   -3.9280 C   0  0  0  0  0  0  0  0  0  0  0  0
   -1.7370   14.8140   -1.2420 C   0  0  0  0  0  0  0  0  0  0  0  0
   -1.1510   15.5310   -4.6430 C   0  0  0  0  0  0  0  0  0  0  0  0
    0.1380   16.0530   -4.5190 C   0  0  0  0  0  0  0  0  0  0  0  0
   -2.1840   16.2990   -5.1690 C   0  0  0  0  0  0  0  0  0  0  0  0
    0.4230   17.3480   -4.9170 C   0  0  0  0  0  0  0  0  0  0  0  0
   -3.2230   14.9050   -1.1690 C   0  0  0  0  0  0  0  0  0  0  0  0
   -1.8980   17.6060   -5.5750 C   0  0  0  0  0  0  0  0  0  0  0  0
   -0.6040   18.1240   -5.4500 C   0  0  0  0  0  0  0  0  0  0  0  0
   -4.0380   15.1740   -2.2760 C   0  0  0  0  0  0  0  0  0  0  0  0
   -3.7990   14.6960    0.0610 C   0  0  0  0  0  0  0  0  0  0  0  0
   -5.1730   14.7290    0.2200 C   0  0  0  0  0  0  0  0  0  0  0  0
   -5.4320   15.2080   -2.1100 C   0  0  0  0  0  0  0  0  0  0  0  0
   -5.7340   14.5030    1.4670 C   0  0  0  0  0  0  0  0  0  0  0  0
   -6.0200   14.9820   -0.8740 C   0  0  0  0  0  0  0  0  0  0  0  0
   -7.1010   14.5180    1.6400 C   0  0  0  0  0  0  0  0  0  0  0  0
   -7.3570   15.0020   -0.7360 N   0  0  0  0  0  0  0  0  0  0  0  0
   -7.6290   14.2860    2.9090 N   0  0  0  0  0  0  0  0  0  0  0  0
   -7.8670   14.7700    0.5030 C   0  0  0  0  0  0  0  0  0  0  0  0
  2  1  1  0
  2  3  1  0
  2  4  1  0
  2  5  1  0
  4  6  1  0
  5  7  1  0
  5  8  1  0
  6  9  1  0
  7 10  1  0
  8 11  1  0
 10 11  2  0
 10 12  1  0
 11 13  1  0
  9 14  1  0
 12 15  2  0
 13 16  2  0
 15 16  1  0
 14 17  2  0
 14 18  1  0
 18 19  2  0
 17 20  1  0
 19 21  1  0
 19 22  1  0
 20 22  2  0
 21 23  2  0
 22 24  1  0
 23 25  1  0
 23 26  1  0
 24 26  2  0
M  END
