mac-x0178-diamond-x1015_0_A
     RDKit          3D

 26 28  0  0  0  0  0  0  0  0999 V2000
   -0.2530   18.5770   -6.4310 N   0  0  0  0  0  0  0  0  0  0  0  0
   -1.4230   17.7100   -5.5810 S   0  0  0  0  0  0  0  0  0  0  0  0
   -2.3910   17.2550   -6.5630 O   0  0  0  0  0  0  0  0  0  0  0  0
   -1.7710   18.5940   -4.4970 O   0  0  0  0  0  0  0  0  0  0  0  0
   -0.4070   16.3190   -5.0150 C   0  0  0  0  0  0  0  0  0  0  0  0
    0.8490   16.6140   -4.3450 C   0  0  0  0  0  0  0  0  0  0  0  0
   -0.8600   14.9330   -5.2580 C   0  0  0  0  0  0  0  0  0  0  0  0
    1.6560   15.5330   -3.9430 C   0  0  0  0  0  0  0  0  0  0  0  0
   -0.0410   13.8500   -4.8540 C   0  0  0  0  0  0  0  0  0  0  0  0
    1.0620   14.3630   -4.2800 C   0  0  0  0  0  0  0  0  0  0  0  0
    0.0940   15.3850   -4.6580 C   0  0  0  0  0  0  0  0  0  0  0  0
    0.2820   16.0700   -5.6740 O   0  0  0  0  0  0  0  0  0  0  0  0
   -0.9970   15.4460   -3.7190 N   0  0  0  0  0  0  0  0  0  0  0  0
   -0.7920   14.6500   -2.5280 C   0  0  0  0  0  0  0  0  0  0  0  0
   -2.4030   15.4800   -3.9330 C   0  0  0  0  0  0  0  0  0  0  0  0
   -3.0440   16.1750   -4.7080 O   0  0  0  0  0  0  0  0  0  0  0  0
   -3.0290   14.4620   -2.9780 C   0  0  1  0  0  0  0  0  0  0  0  0
   -1.8610   13.6680   -2.6010 N   0  0  0  0  0  0  0  0  0  0  0  0
   -3.6410   15.1600   -1.7770 C   0  0  0  0  0  0  0  0  0  0  0  0
   -1.5870   12.5070   -3.2880 C   0  0  0  0  0  0  0  0  0  0  0  0
   -2.2600   12.2030   -4.4840 C   0  0  0  0  0  0  0  0  0  0  0  0
   -0.6300   11.5730   -2.8500 C   0  0  0  0  0  0  0  0  0  0  0  0
   -2.0010   11.0400   -5.2100 C   0  0  0  0  0  0  0  0  0  0  0  0
   -0.3650   10.4040   -3.5730 C   0  0  0  0  0  0  0  0  0  0  0  0
   -1.0540   10.1450   -4.7540 C   0  0  0  0  0  0  0  0  0  0  0  0
   -0.7540    8.7240   -5.6720 Cl  0  0  0  0  0  0  0  0  0  0  0  0
  2  1  1  0
  2  3  2  0
  2  4  2  0
  2  5  1  0
  5  6  2  0
  5  7  1  0
  6  8  1  0
  7  9  2  0
  8 10  2  0
  9 10  1  0
 10 11  1  0
 11 12  2  0
 11 13  1  0
 13 14  1  0
 13 15  1  0
 15 16  2  0
 15 17  1  0
 14 18  1  0
 17 18  1  0
 17 19  1  1
 18 20  1  0
 20 21  2  0
 20 22  1  0
 21 23  1  0
 22 24  2  0
 23 25  2  0
 24 25  1  0
 25 26  1  0
M  END
