mac-x0387-mac-x0347
     RDKit          3D

 19 21  0  0  0  0  0  0  0  0999 V2000
   -3.5560   14.4440    1.9640 N   0  0  0  0  0  0  0  0  0  0  0  0
   -2.3780   14.5050    1.2740 C   0  0  0  0  0  0  0  0  0  0  0  0
   -1.3200   14.4820    2.0490 N   0  0  0  0  0  0  0  0  0  0  0  0
   -2.3310   14.5880   -0.0970 C   0  0  0  0  0  0  0  0  0  0  0  0
   -1.0640   14.6740   -0.6970 C   0  0  0  0  0  0  0  0  0  0  0  0
   -0.1330   14.5510    1.4760 C   0  0  0  0  0  0  0  0  0  0  0  0
   -3.6410   14.6000   -0.8610 C   0  0  0  0  0  0  0  0  0  0  0  0
    0.0610   14.6510    0.1240 C   0  0  0  0  0  0  0  0  0  0  0  0
   -0.8710   14.8070   -2.1820 C   0  0  1  0  0  0  0  0  0  0  0  0
   -3.4090   14.9860   -2.3350 C   0  0  0  0  0  0  0  0  0  0  0  0
   -4.4620   15.5040    0.0520 C   0  0  0  0  0  0  0  0  0  0  0  0
   -4.3300   13.2280   -0.9070 C   0  0  0  0  0  0  0  0  0  0  0  0
    0.0810   13.7480   -2.7270 C   0  0  0  0  0  0  0  0  0  0  0  0
   -2.1790   15.0530   -2.9250 C   0  0  0  0  0  0  0  0  0  0  0  0
   -5.3090   15.0080    0.9950 C   0  0  0  0  0  0  0  0  0  0  0  0
   -5.2000   12.7740    0.0190 C   0  0  0  0  0  0  0  0  0  0  0  0
    0.6470   14.1020   -3.9040 O   0  0  0  0  0  0  0  0  0  0  0  0
    0.3940   12.6910   -2.2130 O   0  0  0  0  0  0  0  0  0  0  0  0
   -5.5840   13.5640    1.2090 C   0  0  0  0  0  0  0  0  0  0  0  0
  1  2  1  0
  2  3  2  0
  2  4  1  0
  4  5  2  0
  3  6  1  0
  4  7  1  0
  5  8  1  0
  6  8  2  0
  5  9  1  0
  7 10  1  0
  7 11  1  0
  7 12  1  0
  9 13  1  6
  9 14  1  0
 10 14  2  0
 11 15  2  0
 12 16  2  0
 13 17  1  0
 13 18  2  0
 15 19  1  0
 16 19  1  0
M  END
