mac-x0321-mac-x1493
     RDKit          3D

 14 15  0  0  0  0  0  0  0  0999 V2000
   -4.0610   16.1610    1.0340 Cl  0  0  0  0  0  0  0  0  0  0  0  0
   -4.4540   14.5800    0.2880 C   0  0  2  0  0  0  0  0  0  0  0  0
   -3.2120   14.3040   -0.5290 C   0  0  0  0  0  0  0  0  0  0  0  0
   -5.7280   14.6240   -0.6250 C   0  0  2  0  0  0  0  0  0  0  0  0
   -4.7480   13.7870    1.5330 C   0  0  0  0  0  0  0  0  0  0  0  0
   -3.1390   14.7350   -1.8210 C   0  0  0  0  0  0  0  0  0  0  0  0
   -5.4890   15.4210   -1.8710 C   0  0  0  0  0  0  0  0  0  0  0  0
   -6.9900   14.9080    0.1510 C   0  0  0  0  0  0  0  0  0  0  0  0
   -5.9980   13.7730    2.0490 C   0  0  0  0  0  0  0  0  0  0  0  0
   -1.9070   14.4730   -2.6130 C   0  0  0  0  0  0  0  0  0  0  0  0
   -4.2570   15.4470   -2.4130 C   0  0  0  0  0  0  0  0  0  0  0  0
   -7.0940   14.4950    1.4260 C   0  0  0  0  0  0  0  0  0  0  0  0
   -0.7870   14.4830   -1.8720 O   0  0  0  0  0  0  0  0  0  0  0  0
   -1.8520   14.2750   -3.8150 O   0  0  0  0  0  0  0  0  0  0  0  0
  2  1  1  1
  2  3  1  0
  2  4  1  0
  2  5  1  0
  3  6  2  0
  4  7  1  6
  4  8  1  0
  5  9  2  0
  6 10  1  0
  6 11  1  0
  7 11  2  0
  8 12  2  0
  9 12  1  0
 10 13  1  0
 10 14  2  0
M  END
