mac-x0159-diamond-x0591_0_A
     RDKit          3D

 28 31  0  0  0  0  0  0  0  0999 V2000
   -5.2110   14.9360    0.1590 N   0  0  0  0  0  0  0  0  0  0  0  0
   -6.0370   14.5730    1.3210 C   0  0  0  0  0  0  0  0  0  0  0  0
   -5.6880   14.5570   -1.0910 C   0  0  0  0  0  0  0  0  0  0  0  0
   -3.8340   15.1550    0.4550 C   0  0  0  0  0  0  0  0  0  0  0  0
   -6.9110   14.6820   -1.3070 O   0  0  0  0  0  0  0  0  0  0  0  0
   -3.3560   16.0420   -0.5430 N   0  0  0  0  0  0  0  0  0  0  0  0
   -4.8050   13.9460   -2.2590 C   0  0  1  0  0  0  0  0  0  0  0  0
   -3.1440   15.6420   -1.9050 C   0  0  0  0  0  0  0  0  0  0  0  0
   -5.3820   12.6520   -2.7740 C   0  0  0  0  0  0  0  0  0  0  0  0
   -4.3700   14.6010   -3.6210 C   0  0  1  0  0  0  0  0  0  0  0  0
   -2.8140   14.2120   -4.4830 S   0  0  0  0  0  0  0  0  0  0  0  0
   -1.9830   14.6690   -1.9360 C   0  0  1  0  0  0  0  0  0  0  0  0
   -5.5740   14.2210   -4.5000 C   0  0  0  0  0  0  0  0  0  0  0  0
   -5.8130   12.8150   -4.0340 C   0  0  0  0  0  0  0  0  0  0  0  0
   -1.4220   14.6000   -3.3810 C   0  0  2  0  0  0  0  0  0  0  0  0
   -2.7510   12.7800   -4.7180 O   0  0  0  0  0  0  0  0  0  0  0  0
   -2.7860   15.0490   -5.6800 O   0  0  0  0  0  0  0  0  0  0  0  0
   -1.2450   14.7950   -0.6520 C   0  0  0  0  0  0  0  0  0  0  0  0
   -1.7610   14.4320    0.5800 C   0  0  0  0  0  0  0  0  0  0  0  0
    0.0120   15.2950   -0.5140 N   0  0  0  0  0  0  0  0  0  0  0  0
   -0.7000   15.8450   -3.9370 C   0  0  0  0  0  0  0  0  0  0  0  0
   -0.8090   14.7270    1.4850 N   0  0  0  0  0  0  0  0  0  0  0  0
    0.2350   15.2460    0.7780 C   0  0  0  0  0  0  0  0  0  0  0  0
    0.6120   16.2770   -3.7970 C   0  0  0  0  0  0  0  0  0  0  0  0
   -1.4740   16.6930   -4.7340 N   0  0  0  0  0  0  0  0  0  0  0  0
   -0.7720   17.7130   -5.1710 C   0  0  0  0  0  0  0  0  0  0  0  0
    0.8560   17.7420   -4.6610 S   0  0  0  0  0  0  0  0  0  0  0  0
   -1.3050   18.7890   -6.0490 C   0  0  0  0  0  0  0  0  0  0  0  0
  1  2  1  0
  1  3  1  0
  1  4  1  0
  3  5  2  0
  4  6  1  0
  3  7  1  0
  6  8  1  0
  7  9  1  6
  7 10  1  0
 10 11  1  0
  8 12  1  0
 10 13  1  6
  9 14  2  0
 13 14  1  0
 11 15  1  0
 12 15  1  0
 11 16  2  0
 11 17  2  0
 12 18  1  1
 18 19  2  0
 18 20  1  0
 15 21  1  6
 19 22  1  0
 20 23  2  0
 22 23  1  0
 21 24  2  0
 21 25  1  0
 25 26  2  0
 24 27  1  0
 26 27  1  0
 26 28  1  0
M  END
