mac-x0305-mac-x0590
     RDKit          3D

 21 23  0  0  0  0  0  0  0  0999 V2000
    0.0630   12.9330   -0.6350 O   0  0  0  0  0  0  0  0  0  0  0  0
   -0.6870   13.6200   -1.5330 C   0  0  0  0  0  0  0  0  0  0  0  0
   -0.6160   13.1420   -2.7230 N   0  0  0  0  0  0  0  0  0  0  0  0
   -1.4720   14.8690   -1.0070 C   0  0  2  0  0  0  0  0  0  0  0  0
   -1.3180   13.7130   -3.8680 C   0  0  0  0  0  0  0  0  0  0  0  0
   -2.2170   14.7660    0.4020 C   0  0  2  0  0  0  0  0  0  0  0  0
   -2.3680   15.2920   -2.0910 N   0  0  0  0  0  0  0  0  0  0  0  0
   -0.3490   15.7310   -0.6350 N   0  0  0  0  0  0  0  0  0  0  0  0
   -2.5570   13.4830    0.8280 O   0  0  0  0  0  0  0  0  0  0  0  0
   -0.6690   13.2210   -5.1680 C   0  0  0  0  0  0  0  0  0  0  0  0
   -3.5410   15.6570    0.4840 C   0  0  2  0  0  0  0  0  0  0  0  0
   -3.7060   15.5150   -1.9540 C   0  0  0  0  0  0  0  0  0  0  0  0
   -1.2500   15.2240    1.3830 N   0  0  0  0  0  0  0  0  0  0  0  0
   -0.0110   15.2240    0.6680 C   0  0  0  0  0  0  0  0  0  0  0  0
   -4.4960   15.2050    1.5150 N   0  0  0  0  0  0  0  0  0  0  0  0
   -4.3090   15.6940   -0.7890 C   0  0  0  0  0  0  0  0  0  0  0  0
    0.4570   12.1970   -4.9800 C   0  0  2  0  0  0  0  0  0  0  0  0
    0.8490   11.9320   -3.5240 C   0  0  0  0  0  0  0  0  0  0  0  0
    1.7480   12.6430   -5.6400 C   0  0  0  0  0  0  0  0  0  0  0  0
    2.6510   13.0150   -4.4850 C   0  0  0  0  0  0  0  0  0  0  0  0
    2.2480   12.2190   -3.3770 O   0  0  0  0  0  0  0  0  0  0  0  0
  1  2  1  0
  2  3  2  3
  4  2  1  6
  3  5  1  0
  4  6  1  0
  4  7  1  0
  4  8  1  0
  6  9  1  1
  5 10  1  0
  6 11  1  0
  7 12  1  0
  6 13  1  0
  8 14  1  0
 13 14  1  0
 11 15  1  1
 11 16  1  0
 12 16  2  0
 17 10  1  1
 17 18  1  0
 17 19  1  0
 19 20  1  0
 18 21  1  0
 20 21  1  0
M  END
