mac-x0277-mac-x0360
     RDKit          3D

 26 27  0  0  0  0  0  0  0  0999 V2000
   -1.3100   18.3560   -5.2350 Cl  0  0  0  0  0  0  0  0  0  0  0  0
   -0.5840   16.8140   -4.9590 C   0  0  0  0  0  0  0  0  0  0  0  0
   -1.3160   15.6180   -5.0230 C   0  0  0  0  0  0  0  0  0  0  0  0
    0.7820   16.7910   -4.6640 C   0  0  0  0  0  0  0  0  0  0  0  0
   -2.7960   15.5370   -5.3270 C   0  0  0  0  0  0  0  0  0  0  0  0
   -0.6360   14.4080   -4.7920 C   0  0  0  0  0  0  0  0  0  0  0  0
    1.4330   15.5760   -4.4330 C   0  0  0  0  0  0  0  0  0  0  0  0
   -3.5380   14.6440   -4.3240 C   0  0  0  0  0  0  0  0  0  0  0  0
    0.7320   14.3770   -4.4990 C   0  0  0  0  0  0  0  0  0  0  0  0
    1.4330   13.0590   -4.2550 C   0  0  0  0  0  0  0  0  0  0  0  0
   -3.7380   15.3500   -2.9900 C   0  0  0  0  0  0  0  0  0  0  0  0
    1.0020   12.4040   -2.9650 C   0  0  0  0  0  0  0  0  0  0  0  0
   -3.0640   14.6500   -1.8960 N   0  0  0  0  0  0  0  0  0  0  0  0
    0.3190   11.2610   -3.1810 O   0  0  0  0  0  0  0  0  0  0  0  0
    1.1990   12.7900   -1.8280 O   0  0  0  0  0  0  0  0  0  0  0  0
   -3.8080   14.7250   -0.3970 S   0  0  0  0  0  0  0  0  0  0  0  0
   -4.7310   15.8330   -0.4800 O   0  0  0  0  0  0  0  0  0  0  0  0
   -2.8110   14.6410    0.6450 O   0  0  0  0  0  0  0  0  0  0  0  0
   -4.7710   13.2310   -0.4200 C   0  0  0  0  0  0  0  0  0  0  0  0
   -4.5640   12.2850   -1.4350 C   0  0  0  0  0  0  0  0  0  0  0  0
   -5.7270   13.0200    0.5730 C   0  0  0  0  0  0  0  0  0  0  0  0
   -5.3360   11.1270   -1.4420 C   0  0  0  0  0  0  0  0  0  0  0  0
   -6.4880   11.8560    0.5450 C   0  0  0  0  0  0  0  0  0  0  0  0
   -7.6740   11.5780    1.7560 Cl  0  0  0  0  0  0  0  0  0  0  0  0
   -5.1060    9.9460   -2.6760 Cl  0  0  0  0  0  0  0  0  0  0  0  0
   -6.2980   10.9090   -0.4610 C   0  0  0  0  0  0  0  0  0  0  0  0
  1  2  1  0
  2  3  2  0
  2  4  1  0
  3  5  1  0
  3  6  1  0
  4  7  2  0
  5  8  1  0
  6  9  2  0
  7  9  1  0
  9 10  1  0
  8 11  1  0
 10 12  1  0
 11 13  1  0
 12 14  1  0
 12 15  2  0
 16 13  1  0
 16 17  2  0
 16 18  2  0
 16 19  1  0
 19 20  2  0
 19 21  1  0
 20 22  1  0
 21 23  2  0
 23 24  1  0
 22 25  1  0
 22 26  2  0
 23 26  1  0
M  END
