mac-x0412-diamond-x1012_0_A
     RDKit          3D

 25 27  0  0  0  0  0  0  0  0999 V2000
   -7.9720   15.0160   -0.4730 O   0  0  0  0  0  0  0  0  0  0  0  0
   -7.0090   14.7260    0.2250 C   0  0  0  0  0  0  0  0  0  0  0  0
   -7.0890   14.7610    1.5990 N   0  0  0  0  0  0  0  0  0  0  0  0
   -5.6510   14.2900   -0.3650 C   0  0  2  0  0  0  0  0  0  0  0  0
   -4.5000   14.9130    0.3970 C   0  0  0  0  0  0  0  0  0  0  0  0
   -6.0000   15.0200    2.2450 C   0  0  0  0  0  0  0  0  0  0  0  0
   -5.5430   14.4240   -1.8560 C   0  0  0  0  0  0  0  0  0  0  0  0
   -4.6590   15.2700    1.6720 C   0  0  0  0  0  0  0  0  0  0  0  0
   -3.2520   15.0790   -0.3280 C   0  0  0  0  0  0  0  0  0  0  0  0
   -4.4000   14.7400   -2.4760 C   0  0  0  0  0  0  0  0  0  0  0  0
   -4.3420   14.8040   -3.9860 C   0  0  0  0  0  0  0  0  0  0  0  0
   -3.2090   14.9980   -1.6750 C   0  0  0  0  0  0  0  0  0  0  0  0
   -3.4970   15.9400   -4.5530 C   0  0  0  0  0  0  0  0  0  0  0  0
   -2.2360   15.4650   -4.8270 N   0  0  0  0  0  0  0  0  0  0  0  0
   -1.1920   16.1430   -4.9160 C   0  0  0  0  0  0  0  0  0  0  0  0
   -1.1590   17.5030   -4.7640 N   0  0  0  0  0  0  0  0  0  0  0  0
   -0.0520   15.5170   -5.1680 N   0  0  0  0  0  0  0  0  0  0  0  0
   -0.2920   14.0960   -5.4410 C   0  0  0  0  0  0  0  0  0  0  0  0
    1.0960   15.7560   -4.3240 C   0  0  0  0  0  0  0  0  0  0  0  0
   -0.7830   13.3910   -4.1890 C   0  0  0  0  0  0  0  0  0  0  0  0
    1.3770   14.5230   -3.4630 C   0  0  0  0  0  0  0  0  0  0  0  0
    0.0820   13.8150   -3.0210 C   0  0  0  0  0  0  0  0  0  0  0  0
    0.3710   12.6210   -2.1360 C   0  0  0  0  0  0  0  0  0  0  0  0
    0.4350   11.4270   -2.7760 O   0  0  0  0  0  0  0  0  0  0  0  0
    0.5120   12.7220   -0.9430 O   0  0  0  0  0  0  0  0  0  0  0  0
  1  2  2  0
  2  3  1  0
  2  4  1  0
  4  5  1  0
  3  6  2  0
  4  7  1  6
  5  8  2  0
  6  8  1  0
  5  9  1  0
  7 10  2  0
 10 11  1  0
  9 12  2  0
 10 12  1  0
 11 13  1  0
 13 14  1  0
 14 15  2  3
 15 16  1  0
 15 17  1  0
 17 18  1  0
 17 19  1  0
 18 20  1  0
 19 21  1  0
 20 22  1  0
 21 22  1  0
 22 23  1  0
 23 24  1  0
 23 25  2  0
M  END
