mac-x0354-mac-x0282
     RDKit          3D

 26 29  0  0  0  0  0  0  0  0999 V2000
    0.5590   11.0540   -8.3790 C   0  0  0  0  0  0  0  0  0  0  0  0
    0.8600   11.5160   -7.0400 N   0  0  0  0  0  0  0  0  0  0  0  0
    1.8440   12.3920   -6.8500 N   0  0  0  0  0  0  0  0  0  0  0  0
    0.2410   11.1530   -5.8860 C   0  0  0  0  0  0  0  0  0  0  0  0
    1.8730   12.6070   -5.5710 C   0  0  0  0  0  0  0  0  0  0  0  0
    0.9060   11.8710   -4.8910 C   0  0  0  0  0  0  0  0  0  0  0  0
   -0.8430   10.2020   -5.8990 C   0  0  0  0  0  0  0  0  0  0  0  0
    0.8040   11.9620   -3.4820 C   0  0  0  0  0  0  0  0  0  0  0  0
   -0.6350    8.9400   -6.4680 C   0  0  0  0  0  0  0  0  0  0  0  0
   -2.0870   10.5230   -5.3610 C   0  0  0  0  0  0  0  0  0  0  0  0
    1.3450   13.0270   -3.0330 N   0  0  0  0  0  0  0  0  0  0  0  0
    0.2290   10.9450   -2.7850 O   0  0  0  0  0  0  0  0  0  0  0  0
   -1.6640    8.0070   -6.4960 C   0  0  0  0  0  0  0  0  0  0  0  0
   -3.1180    9.5880   -5.3900 C   0  0  0  0  0  0  0  0  0  0  0  0
    1.4660   13.3250   -1.6380 C   0  0  0  0  0  0  0  0  0  0  0  0
   -2.9050    8.3320   -5.9560 C   0  0  0  0  0  0  0  0  0  0  0  0
    1.0090   14.7050   -1.2370 C   0  0  0  0  0  0  0  0  0  0  0  0
   -0.2800   14.7210   -0.4810 C   0  0  0  0  0  0  0  0  0  0  0  0
   -1.4480   14.8610   -1.2120 C   0  0  0  0  0  0  0  0  0  0  0  0
   -0.3770   14.6080    0.9140 C   0  0  0  0  0  0  0  0  0  0  0  0
   -2.6520   14.9010   -0.5180 C   0  0  0  0  0  0  0  0  0  0  0  0
   -1.5210   14.6240    1.6400 N   0  0  0  0  0  0  0  0  0  0  0  0
   -4.0090   15.0500   -0.8870 C   0  0  0  0  0  0  0  0  0  0  0  0
   -2.6080   14.7770    0.8620 C   0  0  0  0  0  0  0  0  0  0  0  0
   -4.7510   15.0070    0.2670 C   0  0  0  0  0  0  0  0  0  0  0  0
   -3.8900   14.8350    1.3200 N   0  0  0  0  0  0  0  0  0  0  0  0
  1  2  1  0
  2  3  1  0
  2  4  1  0
  3  5  2  0
  4  6  2  0
  5  6  1  0
  4  7  1  0
  6  8  1  0
  7  9  2  0
  7 10  1  0
  8 11  2  3
  8 12  1  0
  9 13  1  0
 10 14  2  0
 11 15  1  0
 13 16  2  0
 14 16  1  0
 15 17  1  0
 17 18  1  0
 18 19  2  0
 18 20  1  0
 19 21  1  0
 20 22  2  0
 21 23  1  0
 21 24  2  0
 22 24  1  0
 23 25  2  0
 24 26  1  0
 25 26  1  0
M  END
