mac-x0333-mac-x0433
     RDKit          3D

 12 13  0  0  0  0  0  0  0  0999 V2000
   -2.2740   15.1870   -3.4530 O   0  0  0  0  0  0  0  0  0  0  0  0
   -3.0710   15.0050   -2.3690 C   0  0  0  0  0  0  0  0  0  0  0  0
   -2.4370   14.7870   -1.1500 C   0  0  0  0  0  0  0  0  0  0  0  0
   -4.4550   15.0430   -2.4890 C   0  0  0  0  0  0  0  0  0  0  0  0
   -5.1870   14.8570   -1.3460 C   0  0  0  0  0  0  0  0  0  0  0  0
   -3.1880   14.6030   -0.0130 C   0  0  0  0  0  0  0  0  0  0  0  0
   -4.5510   14.6430   -0.1400 C   0  0  0  0  0  0  0  0  0  0  0  0
   -6.5850   14.8600   -1.2090 N   0  0  0  0  0  0  0  0  0  0  0  0
   -7.2620   15.8920   -1.9030 N   0  0  0  0  0  0  0  0  0  0  0  0
   -5.3990   14.4960    0.9050 N   0  0  0  0  0  0  0  0  0  0  0  0
   -6.7470   14.5750    0.2560 C   0  0  0  0  0  0  0  0  0  0  0  0
   -4.8250   15.4680    1.8150 C   0  0  0  0  0  0  0  0  0  0  0  0
  1  2  1  0
  2  3  2  0
  2  4  1  0
  4  5  2  0
  3  6  1  0
  5  7  1  0
  6  7  2  0
  5  8  1  0
  8  9  1  0
  7 10  1  0
  8 11  1  0
 10 11  1  0
 10 12  1  0
M  END
