mac-x0305-mac-x0387
     RDKit          3D

 15 16  0  0  0  0  0  0  0  0999 V2000
   -0.2670   12.6200   -0.8390 O   0  0  0  0  0  0  0  0  0  0  0  0
   -0.7150   13.5390   -1.7200 C   0  0  0  0  0  0  0  0  0  0  0  0
   -0.5140   13.3990   -2.9190 O   0  0  0  0  0  0  0  0  0  0  0  0
   -1.4020   14.7410   -1.0770 C   0  0  2  0  0  0  0  0  0  0  0  0
   -2.5190   14.3360   -0.0690 C   0  0  2  0  0  0  0  0  0  0  0  0
   -1.8900   15.4770   -2.2680 N   0  0  0  0  0  0  0  0  0  0  0  0
   -0.1470   15.1870   -0.4120 C   0  0  0  0  0  0  0  0  0  0  0  0
   -2.7540   12.9650   -0.0510 O   0  0  0  0  0  0  0  0  0  0  0  0
   -3.8710   14.9400   -0.2450 C   0  0  0  0  0  0  0  0  0  0  0  0
   -3.1260   15.8240   -2.3110 C   0  0  0  0  0  0  0  0  0  0  0  0
   -2.2150   14.6720    1.3610 C   0  0  0  0  0  0  0  0  0  0  0  0
   -0.0750   15.2800    0.9010 C   0  0  0  0  0  0  0  0  0  0  0  0
   -3.2600   14.5500    2.2290 N   0  0  0  0  0  0  0  0  0  0  0  0
   -4.1850   15.6460   -1.3020 C   0  0  0  0  0  0  0  0  0  0  0  0
   -1.0980   15.0530    1.7750 N   0  0  0  0  0  0  0  0  0  0  0  0
  1  2  1  0
  2  3  2  0
  4  2  1  6
  4  5  1  0
  4  6  1  0
  4  7  1  0
  5  8  1  1
  5  9  1  0
  6 10  2  0
  5 11  1  0
  7 12  2  0
 11 13  1  0
  9 14  2  0
 10 14  1  0
 11 15  2  0
 12 15  1  0
M  END
