mac-x0190-mac-x0387
     RDKit          3D

 22 25  0  0  0  0  0  0  0  0999 V2000
   -9.4160   14.9280    2.6560 O   0  0  0  0  0  0  0  0  0  0  0  0
   -9.1520   13.9270    1.6830 C   0  0  0  0  0  0  0  0  0  0  0  0
   -7.9060   14.3340    1.0100 C   0  0  0  0  0  0  0  0  0  0  0  0
   -7.8940   14.6810   -0.3110 N   0  0  0  0  0  0  0  0  0  0  0  0
   -6.7120   14.4200    1.5490 N   0  0  0  0  0  0  0  0  0  0  0  0
   -6.6220   15.0130   -0.6460 C   0  0  0  0  0  0  0  0  0  0  0  0
   -5.8990   14.8460    0.5260 C   0  0  0  0  0  0  0  0  0  0  0  0
   -6.0780   15.4330   -1.8470 C   0  0  0  0  0  0  0  0  0  0  0  0
   -4.5330   15.1140    0.5120 C   0  0  0  0  0  0  0  0  0  0  0  0
   -3.6640   14.9940    1.5560 N   0  0  0  0  0  0  0  0  0  0  0  0
   -4.7270   15.6930   -1.8370 C   0  0  0  0  0  0  0  0  0  0  0  0
   -3.9860   15.5360   -0.6890 C   0  0  0  0  0  0  0  0  0  0  0  0
   -2.3690   14.7410    1.1350 C   0  0  0  0  0  0  0  0  0  0  0  0
   -2.1880   14.7010   -0.2860 C   0  0  0  0  0  0  0  0  0  0  0  0
   -1.3830   14.5620    1.9900 N   0  0  0  0  0  0  0  0  0  0  0  0
   -0.9030   14.4840   -0.7750 C   0  0  0  0  0  0  0  0  0  0  0  0
   -0.1740   14.3550    1.4870 C   0  0  0  0  0  0  0  0  0  0  0  0
   -3.2200   14.8680   -1.2470 C   0  0  0  0  0  0  0  0  0  0  0  0
    0.1220   14.3110    0.1310 C   0  0  0  0  0  0  0  0  0  0  0  0
   -0.6590   14.4430   -2.1640 C   0  0  0  0  0  0  0  0  0  0  0  0
   -2.9750   14.8240   -2.6290 C   0  0  0  0  0  0  0  0  0  0  0  0
   -1.6900   14.6140   -3.0820 C   0  0  0  0  0  0  0  0  0  0  0  0
  1  2  1  0
  2  3  1  0
  3  4  1  0
  3  5  2  0
  4  6  1  0
  5  7  1  0
  6  7  2  0
  6  8  1  0
  7  9  1  0
  9 10  1  0
  8 11  2  0
  9 12  2  0
 11 12  1  0
 10 13  1  0
 13 14  1  0
 13 15  2  0
 14 16  2  0
 15 17  1  0
 14 18  1  0
 16 19  1  0
 17 19  2  0
 16 20  1  0
 18 21  2  0
 20 22  2  0
 21 22  1  0
M  END
