mac-x0138-mac-x0396
     RDKit          3D

 20 22  0  0  0  0  0  0  0  0999 V2000
   -0.5440   14.3900   -3.3360 C   0  0  0  0  0  0  0  0  0  0  0  0
   -1.5810   14.6320   -2.3760 N   0  0  0  0  0  0  0  0  0  0  0  0
   -2.8650   14.9890   -2.6710 C   0  0  0  0  0  0  0  0  0  0  0  0
   -1.4640   14.5490   -1.0030 C   0  0  0  0  0  0  0  0  0  0  0  0
   -3.5680   15.1480   -1.5870 N   0  0  0  0  0  0  0  0  0  0  0  0
   -2.6970   14.8810   -0.5400 C   0  0  0  0  0  0  0  0  0  0  0  0
   -0.4130   14.2300   -0.2350 N   0  0  0  0  0  0  0  0  0  0  0  0
   -2.8540   14.8970    0.8450 C   0  0  0  0  0  0  0  0  0  0  0  0
   -0.7410   14.2750    1.0880 C   0  0  0  0  0  0  0  0  0  0  0  0
   -4.0650   15.2570    1.2330 N   0  0  0  0  0  0  0  0  0  0  0  0
    0.1550   13.9670    2.0360 N   0  0  0  0  0  0  0  0  0  0  0  0
   -1.8770   14.5870    1.6470 N   0  0  0  0  0  0  0  0  0  0  0  0
   -4.8430   15.5120    0.1950 C   0  0  0  0  0  0  0  0  0  0  0  0
   -4.4200   16.1580   -0.7460 O   0  0  0  0  0  0  0  0  0  0  0  0
   -6.1450   15.0060    0.0910 C   0  0  0  0  0  0  0  0  0  0  0  0
   -6.8060   15.0300   -1.1110 C   0  0  0  0  0  0  0  0  0  0  0  0
   -6.7330   14.4990    1.2240 C   0  0  0  0  0  0  0  0  0  0  0  0
   -8.0580   14.5620   -1.2480 N   0  0  0  0  0  0  0  0  0  0  0  0
   -8.0120   14.0140    1.1200 C   0  0  0  0  0  0  0  0  0  0  0  0
   -8.6260   14.0670   -0.1240 C   0  0  0  0  0  0  0  0  0  0  0  0
  1  2  1  0
  2  3  1  0
  2  4  1  0
  3  5  2  0
  4  6  2  0
  5  6  1  0
  4  7  1  0
  6  8  1  0
  7  9  2  0
  8 10  1  0
  9 11  1  0
  8 12  2  0
  9 12  1  0
 10 13  1  0
 13 14  2  0
 13 15  1  0
 15 16  2  0
 15 17  1  0
 16 18  1  0
 17 19  2  0
 18 20  2  0
 19 20  1  0
M  END
