mac-x0587-mac-x0365
     RDKit          3D

 17 17  0  0  0  0  0  0  0  0999 V2000
   -0.0180   16.1070   -4.1260 C   0  0  0  0  0  0  0  0  0  0  0  0
   -0.7160   14.8250   -3.6590 C   0  0  2  0  0  0  0  0  0  0  0  0
   -0.3940   13.5220   -4.9400 S   0  0  0  0  0  0  0  0  0  0  0  0
   -2.2600   15.0330   -3.5030 C   0  0  0  0  0  0  0  0  0  0  0  0
   -0.7000   11.9910   -4.0020 C   0  0  0  0  0  0  0  0  0  0  0  0
   -2.9280   15.3110   -4.4980 O   0  0  0  0  0  0  0  0  0  0  0  0
   -2.8430   14.9070   -2.2360 N   0  0  0  0  0  0  0  0  0  0  0  0
    0.4400   11.5590   -3.1020 C   0  0  0  0  0  0  0  0  0  0  0  0
   -4.2450   14.6790   -1.9230 C   0  0  2  0  0  0  0  0  0  0  0  0
   -2.1560   14.7970   -1.0050 C   0  0  0  0  0  0  0  0  0  0  0  0
    0.5990   10.4240   -2.6930 O   0  0  0  0  0  0  0  0  0  0  0  0
    1.2930   12.5630   -2.7730 O   0  0  0  0  0  0  0  0  0  0  0  0
   -0.9560   14.7080   -0.7900 O   0  0  0  0  0  0  0  0  0  0  0  0
   -5.1220   15.3270   -2.7410 F   0  0  0  0  0  0  0  0  0  0  0  0
   -4.3510   15.2550   -0.5150 C   0  0  2  0  0  0  0  0  0  0  0  0
   -3.1090   14.8170    0.0300 N   0  0  0  0  0  0  0  0  0  0  0  0
   -5.4530   14.7380    0.2390 O   0  0  0  0  0  0  0  0  0  0  0  0
  2  1  1  6
  2  3  1  0
  2  4  1  0
  3  5  1  0
  4  6  2  0
  4  7  1  0
  5  8  1  0
  7  9  1  0
  7 10  1  0
  8 11  2  0
  8 12  1  0
 10 13  2  0
  9 14  1  6
  9 15  1  0
 10 16  1  0
 15 16  1  0
 15 17  1  1
M  END
