mac-x0115-mac-x0301
     RDKit          3D

 19 21  0  0  0  0  0  0  0  0999 V2000
   -1.4210   18.6430   -5.2350 C   0  0  0  0  0  0  0  0  0  0  0  0
   -0.4250   17.6640   -5.8240 C   0  0  0  0  0  0  0  0  0  0  0  0
    1.0000   18.0920   -5.5370 C   0  0  0  0  0  0  0  0  0  0  0  0
   -0.6370   16.3670   -5.2510 O   0  0  0  0  0  0  0  0  0  0  0  0
    0.5270   15.6980   -4.7390 C   0  0  0  0  0  0  0  0  0  0  0  0
    0.0670   14.6060   -3.7640 C   0  0  2  0  0  0  0  0  0  0  0  0
   -1.4690   14.4910   -3.8620 C   0  0  0  0  0  0  0  0  0  0  0  0
    0.1640   14.9510   -2.3020 N   0  0  0  0  0  0  0  0  0  0  0  0
   -2.1000   14.1150   -4.8270 O   0  0  0  0  0  0  0  0  0  0  0  0
    1.0640   14.4320   -1.4140 C   0  0  0  0  0  0  0  0  0  0  0  0
   -1.0750   15.1470   -1.8190 C   0  0  0  0  0  0  0  0  0  0  0  0
   -2.0580   14.9070   -2.6060 C   0  0  0  0  0  0  0  0  0  0  0  0
    2.6270   14.0010   -1.8110 S   0  0  0  0  0  0  0  0  0  0  0  0
    0.5820   14.2700   -0.1010 N   0  0  0  0  0  0  0  0  0  0  0  0
   -1.4400   15.5890   -0.4920 C   0  0  2  0  0  0  0  0  0  0  0  0
   -3.2170   15.1510   -1.7780 C   0  0  0  0  0  0  0  0  0  0  0  0
   -0.6310   14.7330    0.4660 C   0  0  0  0  0  0  0  0  0  0  0  0
   -2.9470   15.5160   -0.5380 N   0  0  0  0  0  0  0  0  0  0  0  0
   -0.9660   14.4620    1.6300 O   0  0  0  0  0  0  0  0  0  0  0  0
  1  2  1  0
  2  3  1  0
  2  4  1  0
  4  5  1  0
  6  5  1  6
  6  7  1  0
  6  8  1  0
  7  9  2  0
  8 10  1  0
  8 11  1  0
  7 12  1  0
 11 12  2  0
 10 13  2  0
 10 14  1  0
 11 15  1  0
 12 16  1  0
 14 17  1  0
 15 17  1  0
 15 18  1  1
 16 18  2  0
 17 19  2  0
M  END
