mac-x0284-mac-x0263
     RDKit          3D

 23 25  0  0  0  0  0  0  0  0999 V2000
   -3.7220   15.9770    0.5890 C   0  0  0  0  0  0  0  0  0  0  0  0
   -3.6170   14.8090   -0.4080 C   0  0  1  0  0  0  0  0  0  0  0  0
   -4.3920   15.1670   -1.6990 C   0  0  0  0  0  0  0  0  0  0  0  0
   -2.1480   14.4600   -0.6510 C   0  0  0  0  0  0  0  0  0  0  0  0
   -4.4150   14.0520    0.5990 C   0  0  0  0  0  0  0  0  0  0  0  0
   -1.5750   14.6060   -1.8820 C   0  0  0  0  0  0  0  0  0  0  0  0
   -3.6500   15.3730   -2.9260 C   0  0  0  0  0  0  0  0  0  0  0  0
   -5.7380   14.1620    0.5460 C   0  0  0  0  0  0  0  0  0  0  0  0
   -5.7150   15.2510   -1.7370 C   0  0  0  0  0  0  0  0  0  0  0  0
   -0.1430   14.2840   -2.0940 C   0  0  0  0  0  0  0  0  0  0  0  0
   -2.3500   15.0960   -3.0190 C   0  0  0  0  0  0  0  0  0  0  0  0
   -6.4320   14.8910   -0.5260 C   0  0  0  0  0  0  0  0  0  0  0  0
   -6.6850   13.7090    1.3930 N   0  0  0  0  0  0  0  0  0  0  0  0
   -1.7190   15.2820   -4.2320 O   0  0  0  0  0  0  0  0  0  0  0  0
    0.6470   14.1990   -1.1730 O   0  0  0  0  0  0  0  0  0  0  0  0
    0.2060   14.1040   -3.3830 O   0  0  0  0  0  0  0  0  0  0  0  0
   -7.7570   14.3070    0.9620 C   0  0  0  0  0  0  0  0  0  0  0  0
   -7.6680   15.0440   -0.2120 N   0  0  0  0  0  0  0  0  0  0  0  0
   -9.0830   14.1880    1.6310 C   0  0  0  0  0  0  0  0  0  0  0  0
   -9.5230   15.5670    2.0860 C   0  0  0  0  0  0  0  0  0  0  0  0
  -10.8250   15.5140    2.8260 C   0  0  0  0  0  0  0  0  0  0  0  0
  -11.5660   14.4290    2.5270 O   0  0  0  0  0  0  0  0  0  0  0  0
  -11.2230   16.3380    3.6260 O   0  0  0  0  0  0  0  0  0  0  0  0
  2  1  1  1
  2  3  1  0
  2  4  1  0
  2  5  1  0
  4  6  2  0
  3  7  1  0
  5  8  2  0
  3  9  2  0
  6 10  1  0
  6 11  1  0
  7 11  2  0
  8 12  1  0
  9 12  1  0
  8 13  1  0
 11 14  1  0
 10 15  2  0
 10 16  1  0
 13 17  2  0
 12 18  2  0
 17 18  1  0
 17 19  1  0
 19 20  1  0
 20 21  1  0
 21 22  1  0
 21 23  2  0
M  END
