mac-x0337-mac-x0302
     RDKit          3D

 24 25  0  0  0  0  0  0  0  0999 V2000
   -5.3120    8.2240   -1.7800 C   0  0  0  0  0  0  0  0  0  0  0  0
   -5.0510    9.6760   -2.0680 C   0  0  0  0  0  0  0  0  0  0  0  0
   -5.9490   10.6540   -1.7110 C   0  0  0  0  0  0  0  0  0  0  0  0
   -3.8940   10.0710   -2.6950 C   0  0  0  0  0  0  0  0  0  0  0  0
   -3.6410   11.4050   -2.9730 C   0  0  0  0  0  0  0  0  0  0  0  0
   -5.6830   11.9720   -1.9930 C   0  0  0  0  0  0  0  0  0  0  0  0
   -4.5460   12.3370   -2.6220 C   0  0  0  0  0  0  0  0  0  0  0  0
   -4.3300   14.0170   -2.9490 S   0  0  0  0  0  0  0  0  0  0  0  0
   -3.3400   14.9770   -2.2030 C   0  0  1  0  0  0  0  0  0  0  0  0
   -4.7990   13.8180   -1.1220 O   0  0  0  0  0  0  0  0  0  0  0  0
   -5.9890   14.6600   -2.8950 N   0  0  0  0  0  0  0  0  0  0  0  0
   -1.9350   14.5310   -2.0230 N   0  0  0  0  0  0  0  0  0  0  0  0
   -3.3770   16.2180   -2.7930 O   0  0  0  0  0  0  0  0  0  0  0  0
   -3.8900   15.0270   -0.8260 C   0  0  0  0  0  0  0  0  0  0  0  0
   -1.0410   14.5100   -3.0970 C   0  0  0  0  0  0  0  0  0  0  0  0
   -5.2380   15.0020   -0.6450 C   0  0  0  0  0  0  0  0  0  0  0  0
   -3.1030   15.0640    0.3100 C   0  0  0  0  0  0  0  0  0  0  0  0
    0.3560   14.1440   -2.8630 C   0  0  0  0  0  0  0  0  0  0  0  0
   -5.8310   14.9950    0.5670 C   0  0  0  0  0  0  0  0  0  0  0  0
   -3.6710   15.0660    1.5670 C   0  0  0  0  0  0  0  0  0  0  0  0
    1.2840   14.3950   -3.8920 O   0  0  0  0  0  0  0  0  0  0  0  0
    0.8020   13.6400   -1.8500 O   0  0  0  0  0  0  0  0  0  0  0  0
   -7.2290   14.9470    0.6980 O   0  0  0  0  0  0  0  0  0  0  0  0
   -5.0440   15.0310    1.7130 C   0  0  0  0  0  0  0  0  0  0  0  0
  1  2  1  0
  2  3  2  0
  2  4  1  0
  4  5  2  0
  3  6  1  0
  5  7  1  0
  6  7  2  0
  7  8  1  0
  8  9  1  0
  8 10  2  0
  8 11  1  0
  9 12  1  0
  9 13  1  6
  9 14  1  0
 12 15  1  0
 14 16  2  0
 14 17  1  0
 15 18  1  0
 16 19  1  0
 17 20  2  0
 18 21  1  0
 18 22  2  0
 19 23  1  0
 19 24  2  0
 20 24  1  0
M  END
