mac-x0385-diamond-x0592_0_A
     RDKit          3D

 17 18  0  0  0  0  0  0  0  0999 V2000
    0.2950   15.1290    0.8640 C   0  0  0  0  0  0  0  0  0  0  0  0
   -1.0910   14.9900    0.4630 C   0  0  0  0  0  0  0  0  0  0  0  0
   -2.0190   15.3030    1.3700 N   0  0  0  0  0  0  0  0  0  0  0  0
   -1.3040   14.5660   -0.7750 N   0  0  0  0  0  0  0  0  0  0  0  0
   -3.2840   15.1710    0.9830 C   0  0  0  0  0  0  0  0  0  0  0  0
   -2.5750   14.4440   -1.0820 C   0  0  0  0  0  0  0  0  0  0  0  0
   -4.2240   15.5340    1.9370 N   0  0  0  0  0  0  0  0  0  0  0  0
   -3.6350   14.7120   -0.2650 C   0  0  0  0  0  0  0  0  0  0  0  0
   -2.7500   14.0040   -2.3340 O   0  0  0  0  0  0  0  0  0  0  0  0
   -5.0400   14.5020   -0.6940 C   0  0  2  0  0  0  0  0  0  0  0  0
   -5.8270   15.6130   -1.3530 C   0  0  0  0  0  0  0  0  0  0  0  0
   -5.9370   14.0070    0.4410 C   0  0  0  0  0  0  0  0  0  0  0  0
   -7.2020   15.2700   -1.0120 N   0  0  0  0  0  0  0  0  0  0  0  0
   -7.1160   14.8730    0.3710 N   0  0  0  0  0  0  0  0  0  0  0  0
   -8.3370   14.3190    0.9610 C   0  0  0  0  0  0  0  0  0  0  0  0
   -8.0680   13.9730    2.4380 C   0  0  0  0  0  0  0  0  0  0  0  0
   -7.2630   14.9840    3.0500 O   0  0  0  0  0  0  0  0  0  0  0  0
  1  2  1  0
  2  3  2  0
  2  4  1  0
  3  5  1  0
  4  6  2  0
  5  7  1  0
  5  8  2  0
  6  8  1  0
  6  9  1  0
 10  8  1  1
 10 11  1  0
 10 12  1  0
 11 13  1  0
 12 14  1  0
 13 14  1  0
 14 15  1  0
 15 16  1  0
 16 17  1  0
M  END
