mac-x0572-mac-x0381
     RDKit          3D

 25 28  0  0  0  0  0  0  0  0999 V2000
   -8.0650   14.6120    3.3260 C   0  0  0  0  0  0  0  0  0  0  0  0
   -8.0460   13.2790    3.9090 N   0  0  0  0  0  0  0  0  0  0  0  0
   -7.3090   15.2450    4.3730 N   0  0  0  0  0  0  0  0  0  0  0  0
   -7.2760   14.6840    1.9830 C   0  0  0  0  0  0  0  0  0  0  0  0
   -9.4690   15.1700    3.1170 C   0  0  0  0  0  0  0  0  0  0  0  0
   -7.8560   14.4800    0.7770 C   0  0  0  0  0  0  0  0  0  0  0  0
   -5.9270   14.9720    2.1500 N   0  0  0  0  0  0  0  0  0  0  0  0
   -9.7000   15.9930    2.0120 C   0  0  0  0  0  0  0  0  0  0  0  0
  -10.5520   14.8960    3.9740 C   0  0  0  0  0  0  0  0  0  0  0  0
   -9.1930   14.1900    0.5750 O   0  0  0  0  0  0  0  0  0  0  0  0
   -6.9840   14.5690   -0.4290 C   0  0  0  0  0  0  0  0  0  0  0  0
   -5.0980   14.7810    1.1780 C   0  0  0  0  0  0  0  0  0  0  0  0
  -10.9490   16.5330    1.7320 C   0  0  0  0  0  0  0  0  0  0  0  0
  -11.8200   15.4310    3.7100 C   0  0  0  0  0  0  0  0  0  0  0  0
   -7.4460   14.8390   -1.5350 O   0  0  0  0  0  0  0  0  0  0  0  0
   -5.5210   14.2860   -0.1880 C   0  0  2  0  0  0  0  0  0  0  0  0
   -3.6570   15.0270    1.4150 C   0  0  0  0  0  0  0  0  0  0  0  0
  -12.0320   16.2490    2.5870 C   0  0  0  0  0  0  0  0  0  0  0  0
  -11.1370   17.3490    0.6110 C   0  0  0  0  0  0  0  0  0  0  0  0
   -2.8630   15.2060    0.3610 C   0  0  0  0  0  0  0  0  0  0  0  0
   -4.5990   14.7740   -1.2700 C   0  0  0  0  0  0  0  0  0  0  0  0
  -13.2890   16.7900    2.2890 C   0  0  0  0  0  0  0  0  0  0  0  0
  -12.3910   17.8800    0.3270 C   0  0  0  0  0  0  0  0  0  0  0  0
   -3.3620   15.1890   -0.9950 C   0  0  0  0  0  0  0  0  0  0  0  0
  -13.4670   17.6000    1.1640 C   0  0  0  0  0  0  0  0  0  0  0  0
  1  2  1  0
  1  3  1  0
  1  4  1  0
  1  5  1  0
  4  6  2  0
  4  7  1  0
  5  8  2  0
  5  9  1  0
  6 10  1  0
  6 11  1  0
  7 12  2  0
  8 13  1  0
  9 14  2  0
 11 15  2  0
 11 16  1  0
 12 16  1  0
 12 17  1  0
 13 18  2  0
 14 18  1  0
 13 19  1  0
 17 20  2  0
 16 21  1  6
 18 22  1  0
 19 23  2  0
 20 24  1  0
 21 24  2  0
 22 25  2  0
 23 25  1  0
M  END
