mac-x0306-diamond-x0967_0_A
     RDKit          3D

 11 12  0  0  0  0  0  0  0  0999 V2000
   -8.6610   14.6160    1.0720 C   0  0  0  0  0  0  0  0  0  0  0  0
   -7.9290   14.4610    2.2180 C   0  0  0  0  0  0  0  0  0  0  0  0
   -6.6250   14.5360    1.8230 N   0  0  0  0  0  0  0  0  0  0  0  0
   -7.8360   14.7850   -0.0050 N   0  0  0  0  0  0  0  0  0  0  0  0
   -6.5950   14.7380    0.4510 C   0  0  0  0  0  0  0  0  0  0  0  0
   -5.3950   14.8780   -0.3770 C   0  0  0  0  0  0  0  0  0  0  0  0
   -5.4610   15.1140   -1.7530 C   0  0  0  0  0  0  0  0  0  0  0  0
   -4.1340   14.7710    0.2150 C   0  0  0  0  0  0  0  0  0  0  0  0
   -4.2790   15.2250   -2.4670 C   0  0  0  0  0  0  0  0  0  0  0  0
   -3.0120   14.8970   -0.5850 C   0  0  0  0  0  0  0  0  0  0  0  0
   -3.0570   15.1200   -1.9140 N   0  0  0  0  0  0  0  0  0  0  0  0
  1  2  2  0
  2  3  1  0
  1  4  1  0
  3  5  1  0
  4  5  2  0
  5  6  1  0
  6  7  2  0
  6  8  1  0
  7  9  1  0
  8 10  2  0
  9 11  2  0
 10 11  1  0
M  END
