mac-x0373-mac-x0212
     RDKit          3D

 22 23  0  0  0  0  0  0  0  0999 V2000
    0.2500   13.2050   -1.5880 O   0  0  0  0  0  0  0  0  0  0  0  0
    0.0470   14.3500   -2.3040 C   0  0  0  0  0  0  0  0  0  0  0  0
    0.9590   15.1440   -2.4760 O   0  0  0  0  0  0  0  0  0  0  0  0
   -1.4320   14.4410   -2.8250 C   0  0  1  0  0  0  0  0  0  0  0  0
   -1.4900   15.5220   -3.8010 O   0  0  0  0  0  0  0  0  0  0  0  0
   -1.7260   13.1400   -3.5720 C   0  0  0  0  0  0  0  0  0  0  0  0
   -2.4820   14.6980   -1.7340 C   0  0  0  0  0  0  0  0  0  0  0  0
   -1.0710   12.8690   -4.7870 C   0  0  0  0  0  0  0  0  0  0  0  0
   -2.6400   12.1920   -3.0820 C   0  0  0  0  0  0  0  0  0  0  0  0
   -3.7290   15.2810   -2.0620 C   0  0  0  0  0  0  0  0  0  0  0  0
   -2.2510   14.3570   -0.3950 C   0  0  0  0  0  0  0  0  0  0  0  0
   -1.3220   11.6900   -5.4920 C   0  0  0  0  0  0  0  0  0  0  0  0
   -2.8920   11.0140   -3.7850 C   0  0  0  0  0  0  0  0  0  0  0  0
   -4.7080   15.4880   -1.0770 C   0  0  0  0  0  0  0  0  0  0  0  0
   -3.2240   14.5630    0.5790 C   0  0  0  0  0  0  0  0  0  0  0  0
   -2.2340   10.7630   -4.9890 C   0  0  0  0  0  0  0  0  0  0  0  0
   -4.4490   15.1110    0.2440 C   0  0  0  0  0  0  0  0  0  0  0  0
   -5.3900   15.2420    1.3030 N   0  0  0  0  0  0  0  0  0  0  0  0
   -6.8800   14.4740    1.0840 S   0  0  0  0  0  0  0  0  0  0  0  0
   -6.4320   12.7750    1.3960 C   0  0  0  0  0  0  0  0  0  0  0  0
   -7.8210   14.9030    2.0970 O   0  0  0  0  0  0  0  0  0  0  0  0
   -7.2140   14.5970   -0.3220 O   0  0  0  0  0  0  0  0  0  0  0  0
  1  2  1  0
  2  3  2  0
  2  4  1  0
  4  5  1  6
  4  6  1  0
  4  7  1  0
  6  8  2  0
  6  9  1  0
  7 10  2  0
  7 11  1  0
  8 12  1  0
  9 13  2  0
 10 14  1  0
 11 15  2  0
 12 16  2  0
 13 16  1  0
 14 17  2  0
 15 17  1  0
 17 18  1  0
 19 18  1  0
 19 20  1  0
 19 21  2  0
 19 22  2  0
M  END
