mac-x0527-diamond-x0628_0_A
     RDKit          3D

 22 23  0  0  0  0  0  0  0  0999 V2000
   -3.7180   15.4760   -3.6560 O   0  0  0  0  0  0  0  0  0  0  0  0
   -3.1400   15.0540   -2.6660 C   0  0  0  0  0  0  0  0  0  0  0  0
   -1.8650   14.5360   -2.6860 N   0  0  0  0  0  0  0  0  0  0  0  0
   -3.7920   15.0580   -1.3220 C   0  0  0  0  0  0  0  0  0  0  0  0
   -1.0310   14.5490   -3.8650 C   0  0  0  0  0  0  0  0  0  0  0  0
   -5.1680   15.1730   -1.2220 C   0  0  0  0  0  0  0  0  0  0  0  0
   -2.9770   14.9450   -0.2260 N   0  0  0  0  0  0  0  0  0  0  0  0
   -1.0000   13.2250   -4.6170 C   0  0  0  0  0  0  0  0  0  0  0  0
   -5.8020   15.1750   -0.0240 N   0  0  0  0  0  0  0  0  0  0  0  0
   -3.6240   14.9500    0.9640 C   0  0  0  0  0  0  0  0  0  0  0  0
   -2.1660   12.4350   -4.6630 C   0  0  0  0  0  0  0  0  0  0  0  0
    0.1460   12.7390   -5.2810 C   0  0  0  0  0  0  0  0  0  0  0  0
   -5.0010   15.0620    1.0640 C   0  0  0  0  0  0  0  0  0  0  0  0
   -2.1920   11.2090   -5.3440 C   0  0  0  0  0  0  0  0  0  0  0  0
    0.1010   11.5140   -5.9640 C   0  0  0  0  0  0  0  0  0  0  0  0
    1.4600   13.4590   -5.2940 C   0  0  0  0  0  0  0  0  0  0  0  0
   -1.0550   10.7390   -6.0090 C   0  0  0  0  0  0  0  0  0  0  0  0
    2.2510   13.0900   -4.0430 C   0  0  0  0  0  0  0  0  0  0  0  0
   -1.0590    9.4280   -6.7530 C   0  0  0  0  0  0  0  0  0  0  0  0
    1.4100   12.3600   -3.0110 C   0  0  0  0  0  0  0  0  0  0  0  0
    0.8440   11.2910   -3.1900 O   0  0  0  0  0  0  0  0  0  0  0  0
    1.3320   13.0040   -1.8300 O   0  0  0  0  0  0  0  0  0  0  0  0
  1  2  2  0
  2  3  1  0
  2  4  1  0
  3  5  1  0
  4  6  2  0
  4  7  1  0
  5  8  1  0
  6  9  1  0
  7 10  2  0
  8 11  2  0
  8 12  1  0
  9 13  2  0
 10 13  1  0
 11 14  1  0
 12 15  2  0
 12 16  1  0
 14 17  2  0
 15 17  1  0
 16 18  1  0
 17 19  1  0
 18 20  1  0
 20 21  2  0
 20 22  1  0
M  END
