mac-x0453-mac-x0441
     RDKit          3D

 28 30  0  0  0  0  0  0  0  0999 V2000
   -6.9510   14.1450    2.3620 N   0  0  0  0  0  0  0  0  0  0  0  0
   -5.9950   13.8630    1.2880 C   0  0  0  0  0  0  0  0  0  0  0  0
   -4.7640   14.7790    1.3260 C   0  0  0  0  0  0  0  0  0  0  0  0
   -3.9970   14.8140    0.0540 C   0  0  0  0  0  0  0  0  0  0  0  0
   -2.6770   14.4920   -0.1690 C   0  0  0  0  0  0  0  0  0  0  0  0
   -4.5990   15.2070   -1.1230 N   0  0  0  0  0  0  0  0  0  0  0  0
   -2.4770   14.6890   -1.5060 N   0  0  0  0  0  0  0  0  0  0  0  0
   -3.6630   15.1200   -2.0370 C   0  0  0  0  0  0  0  0  0  0  0  0
   -1.2530   14.4850   -2.2570 C   0  0  0  0  0  0  0  0  0  0  0  0
    0.0650   14.6290   -1.4750 C   0  0  0  0  0  0  0  0  0  0  0  0
    1.2550   13.9850   -2.1900 C   0  0  0  0  0  0  0  0  0  0  0  0
    0.9510   12.5700   -2.3090 N   0  0  0  0  0  0  0  0  0  0  0  0
    0.6440   11.9840   -3.4130 C   0  0  0  0  0  0  0  0  0  0  0  0
    0.3520   10.6740   -3.4600 O   0  0  0  0  0  0  0  0  0  0  0  0
    0.5740   12.6840   -4.7550 C   0  0  0  0  0  0  0  0  0  0  0  0
    0.2680   11.7610   -5.8490 N   0  0  0  0  0  0  0  0  0  0  0  0
    1.0350   11.7740   -6.9760 N   0  0  0  0  0  0  0  0  0  0  0  0
   -0.7320   10.8300   -5.9260 C   0  0  0  0  0  0  0  0  0  0  0  0
    0.4920   10.8230   -7.7850 C   0  0  0  0  0  0  0  0  0  0  0  0
   -0.6050   10.2180   -7.1510 C   0  0  0  0  0  0  0  0  0  0  0  0
   -1.7750   10.5030   -4.9210 C   0  0  0  0  0  0  0  0  0  0  0  0
    0.9510   10.4270   -9.1710 C   0  0  0  0  0  0  0  0  0  0  0  0
   -1.5000    9.1340   -7.6370 C   0  0  0  0  0  0  0  0  0  0  0  0
   -2.9300    9.7600   -5.6230 C   0  0  0  0  0  0  0  0  0  0  0  0
    1.6310    9.2450   -9.1760 F   0  0  0  0  0  0  0  0  0  0  0  0
   -0.1090   10.2130   -9.9860 F   0  0  0  0  0  0  0  0  0  0  0  0
    1.6950   11.3110   -9.8610 F   0  0  0  0  0  0  0  0  0  0  0  0
   -2.4090    8.6160   -6.5140 C   0  0  0  0  0  0  0  0  0  0  0  0
  1  2  1  0
  2  3  1  0
  3  4  1  0
  4  5  2  0
  4  6  1  0
  5  7  1  0
  6  8  2  0
  7  8  1  0
  7  9  1  0
  9 10  1  0
 10 11  1  0
 11 12  1  0
 12 13  2  3
 13 14  1  0
 13 15  1  0
 15 16  1  0
 16 17  1  0
 16 18  1  0
 17 19  2  0
 18 20  2  0
 19 20  1  0
 18 21  1  0
 19 22  1  0
 20 23  1  0
 21 24  1  0
 22 25  1  0
 22 26  1  0
 22 27  1  0
 23 28  1  0
 24 28  1  0
M  END
