mac-x0361-diamond-x0626_0_A
     RDKit          3D

 18 19  0  0  0  0  0  0  0  0999 V2000
   -7.3990   15.2920   -0.3020 N   0  0  0  0  0  0  0  0  0  0  0  0
   -6.3090   14.2140    0.3350 S   0  0  0  0  0  0  0  0  0  0  0  0
   -7.1420   14.2040    1.3660 O   0  0  0  0  0  0  0  0  0  0  0  0
   -5.0620   14.8360    1.3660 N   0  0  0  0  0  0  0  0  0  0  0  0
   -6.5250   12.7270    0.0620 O   0  0  0  0  0  0  0  0  0  0  0  0
   -5.2950   14.3950   -1.0240 C   0  0  0  0  0  0  0  0  0  0  0  0
   -3.9410   14.1260   -0.9250 C   0  0  0  0  0  0  0  0  0  0  0  0
   -5.6520   14.7880   -2.2930 C   0  0  0  0  0  0  0  0  0  0  0  0
   -3.7000   14.8060    0.9320 C   0  0  0  0  0  0  0  0  0  0  0  0
   -3.0220   14.2440   -1.9540 C   0  0  0  0  0  0  0  0  0  0  0  0
   -4.7900   14.9040   -3.3250 C   0  0  0  0  0  0  0  0  0  0  0  0
   -2.5670   14.4970    1.6020 N   0  0  0  0  0  0  0  0  0  0  0  0
   -3.0930   15.1420   -0.6090 S   0  0  0  0  0  0  0  0  0  0  0  0
   -3.4850   14.6410   -3.1490 C   0  0  0  0  0  0  0  0  0  0  0  0
   -1.4280   14.8420   -0.3440 C   0  0  0  0  0  0  0  0  0  0  0  0
   -1.4420   14.5050    0.9710 C   0  0  0  0  0  0  0  0  0  0  0  0
   -2.5520   14.7640   -4.1970 O   0  0  0  0  0  0  0  0  0  0  0  0
   -0.1200   14.1580    1.5730 C   0  0  0  0  0  0  0  0  0  0  0  0
  1  2  1  0
  2  3  2  0
  2  4  1  0
  2  5  1  0
  2  6  1  0
  6  7  2  0
  6  8  1  0
  4  9  1  0
  7 10  1  0
  8 11  2  0
  9 12  2  0
  9 13  1  0
 10 14  2  0
 11 14  1  0
 13 15  1  0
 12 16  1  0
 15 16  2  0
 14 17  1  0
 16 18  1  0
M  END
