mac-x0228-mac-x0385
     RDKit          3D

 21 23  0  0  0  0  0  0  0  0999 V2000
   -1.8520   14.6800   -2.4410 O   0  0  0  0  0  0  0  0  0  0  0  0
   -2.8550   14.8660   -3.3240 C   0  0  0  0  0  0  0  0  0  0  0  0
   -2.5910   15.2850   -4.4360 O   0  0  0  0  0  0  0  0  0  0  0  0
   -4.2080   14.4730   -2.7790 C   0  0  0  0  0  0  0  0  0  0  0  0
   -4.7730   14.9530   -1.5910 C   0  0  0  0  0  0  0  0  0  0  0  0
   -4.9770   13.5630   -3.4900 C   0  0  0  0  0  0  0  0  0  0  0  0
   -4.1670   15.8960   -0.7900 C   0  0  0  0  0  0  0  0  0  0  0  0
   -5.9630   14.5460   -1.1270 C   0  0  0  0  0  0  0  0  0  0  0  0
   -6.2300   13.1540   -3.0090 C   0  0  0  0  0  0  0  0  0  0  0  0
   -6.6890   13.6610   -1.8150 C   0  0  0  0  0  0  0  0  0  0  0  0
   -6.7090   14.9000    0.0840 C   0  0  0  0  0  0  0  0  0  0  0  0
   -3.1250   15.3720   -0.0320 C   0  0  0  0  0  0  0  0  0  0  0  0
   -7.8690   13.3690   -1.1780 O   0  0  0  0  0  0  0  0  0  0  0  0
   -7.5150   13.6450    0.1920 C   0  0  0  0  0  0  0  0  0  0  0  0
   -3.1200   15.2770    1.2980 C   0  0  0  0  0  0  0  0  0  0  0  0
   -2.0470   14.9570   -0.7400 C   0  0  0  0  0  0  0  0  0  0  0  0
   -4.1830   15.6890    2.0820 N   0  0  0  0  0  0  0  0  0  0  0  0
   -2.0780   14.7860    1.9040 N   0  0  0  0  0  0  0  0  0  0  0  0
   -0.9800   14.4790   -0.1950 N   0  0  0  0  0  0  0  0  0  0  0  0
   -1.0780   14.4270    1.1160 C   0  0  0  0  0  0  0  0  0  0  0  0
    0.0450   13.9030    1.7910 C   0  0  0  0  0  0  0  0  0  0  0  0
  1  2  1  0
  2  3  2  0
  2  4  1  0
  4  5  2  0
  4  6  1  0
  5  7  1  0
  5  8  1  0
  6  9  2  0
  8 10  2  0
  9 10  1  0
  8 11  1  0
  7 12  1  0
 10 13  1  0
 11 14  1  0
 13 14  1  0
 12 15  2  0
 12 16  1  0
 15 17  1  0
 15 18  1  0
 16 19  2  0
 18 20  2  0
 19 20  1  0
 20 21  1  0
M  END
