mac-x0564-diamond-x1018_0_A
     RDKit          3D

 20 23  0  0  0  0  0  0  0  0999 V2000
    0.8280   14.3330   -1.0720 O   0  0  0  0  0  0  0  0  0  0  0  0
    0.0800   14.3660   -2.0370 C   0  0  0  0  0  0  0  0  0  0  0  0
    0.5370   14.2310   -3.3490 N   0  0  0  0  0  0  0  0  0  0  0  0
   -1.3530   14.5340   -1.9560 C   0  0  0  0  0  0  0  0  0  0  0  0
   -2.1520   14.7120   -3.0600 C   0  0  0  0  0  0  0  0  0  0  0  0
   -0.2870   14.4180   -4.3340 C   0  0  0  0  0  0  0  0  0  0  0  0
   -2.0950   14.5310   -0.7960 O   0  0  0  0  0  0  0  0  0  0  0  0
   -1.6230   14.7460   -4.2920 N   0  0  0  0  0  0  0  0  0  0  0  0
   -3.3860   14.7010   -1.2320 C   0  0  0  0  0  0  0  0  0  0  0  0
   -3.4530   14.8170   -2.6000 C   0  0  0  0  0  0  0  0  0  0  0  0
   -4.7190   14.9940   -3.2200 C   0  0  0  0  0  0  0  0  0  0  0  0
   -4.6150   14.7380   -0.3770 C   0  0  1  0  0  0  0  0  0  0  0  0
   -5.7620   15.4390   -2.4970 C   0  0  0  0  0  0  0  0  0  0  0  0
   -5.5910   15.7520   -1.0440 C   0  0  0  0  0  0  0  0  0  0  0  0
   -5.2990   13.4540   -0.6490 N   0  0  0  0  0  0  0  0  0  0  0  0
   -4.6570   14.9380    1.1030 C   0  0  0  0  0  0  0  0  0  0  0  0
   -6.7600   13.5920   -0.4000 N   0  0  0  0  0  0  0  0  0  0  0  0
   -5.9010   14.8590    1.5980 C   0  0  0  0  0  0  0  0  0  0  0  0
   -7.0470   14.5980    0.6410 C   0  0  2  0  0  0  0  0  0  0  0  0
   -8.5040   14.1000    1.5210 Cl  0  0  0  0  0  0  0  0  0  0  0  0
  1  2  2  0
  2  3  1  0
  2  4  1  0
  4  5  2  0
  3  6  2  0
  4  7  1  0
  5  8  1  0
  6  8  1  0
  7  9  1  0
  5 10  1  0
  9 10  2  0
 10 11  1  0
  9 12  1  0
 11 13  2  0
 12 14  1  6
 13 14  1  0
 12 15  1  0
 12 16  1  0
 15 17  1  0
 16 18  2  0
 17 19  1  0
 18 19  1  0
 19 20  1  1
M  END
