mac-x0213-mac-x0411
     RDKit          3D

 23 25  0  0  0  0  0  0  0  0999 V2000
    0.4870   11.8340   -3.5330 C   0  0  0  0  0  0  0  0  0  0  0  0
    0.2890   12.9900   -2.5670 C   0  0  0  0  0  0  0  0  0  0  0  0
    0.3980   12.7870   -1.3480 O   0  0  0  0  0  0  0  0  0  0  0  0
    0.3930   10.6880   -3.1260 O   0  0  0  0  0  0  0  0  0  0  0  0
    0.8100   12.2670   -4.9790 C   0  0  0  0  0  0  0  0  0  0  0  0
    0.5570   11.4590   -6.1280 O   0  0  0  0  0  0  0  0  0  0  0  0
   -0.0630   14.3610   -3.1140 C   0  0  0  0  0  0  0  0  0  0  0  0
   -1.3610   14.4080   -3.9360 C   0  0  0  0  0  0  0  0  0  0  0  0
    1.0040   15.0920   -3.9530 C   0  0  0  0  0  0  0  0  0  0  0  0
   -0.5460   10.6340   -6.1620 C   0  0  0  0  0  0  0  0  0  0  0  0
   -1.2160   15.7390   -4.5800 C   0  0  0  0  0  0  0  0  0  0  0  0
    0.1260   16.1370   -4.5910 C   0  0  0  0  0  0  0  0  0  0  0  0
   -1.7270   11.0140   -5.4850 C   0  0  0  0  0  0  0  0  0  0  0  0
   -0.5540    9.4100   -6.8560 C   0  0  0  0  0  0  0  0  0  0  0  0
    0.8000    8.8070   -7.7450 Cl  0  0  0  0  0  0  0  0  0  0  0  0
   -1.8820   12.4830   -4.6030 Cl  0  0  0  0  0  0  0  0  0  0  0  0
   -2.2150   16.5330   -5.1150 C   0  0  0  0  0  0  0  0  0  0  0  0
    0.4880   17.3530   -5.1390 C   0  0  0  0  0  0  0  0  0  0  0  0
   -2.8580   10.1990   -5.5000 C   0  0  0  0  0  0  0  0  0  0  0  0
   -1.6950    8.6030   -6.8610 C   0  0  0  0  0  0  0  0  0  0  0  0
   -1.8530   17.7600   -5.6710 C   0  0  0  0  0  0  0  0  0  0  0  0
   -0.5100   18.1650   -5.6810 C   0  0  0  0  0  0  0  0  0  0  0  0
   -2.8440    8.9930   -6.1850 C   0  0  0  0  0  0  0  0  0  0  0  0
  1  2  1  0
  2  3  2  0
  1  4  2  0
  1  5  1  0
  5  6  1  0
  2  7  1  0
  7  8  1  0
  7  9  1  0
  6 10  1  0
  8 11  1  0
  9 12  1  0
 11 12  2  0
 10 13  2  0
 10 14  1  0
 14 15  1  0
 13 16  1  0
 11 17  1  0
 12 18  1  0
 13 19  1  0
 14 20  2  0
 17 21  2  0
 18 22  2  0
 21 22  1  0
 19 23  2  0
 20 23  1  0
M  END
