mac-x0348-diamond-x0574_0_A
     RDKit          3D

 29 32  0  0  0  0  0  0  0  0999 V2000
   -0.0650   18.9870   -6.3970 C   0  0  0  0  0  0  0  0  0  0  0  0
   -0.2440   17.6970   -5.8090 N   0  0  0  0  0  0  0  0  0  0  0  0
    0.7500   17.0100   -5.2300 C   0  0  0  0  0  0  0  0  0  0  0  0
   -1.3990   16.9820   -5.7580 C   0  0  0  0  0  0  0  0  0  0  0  0
    0.2750   15.8070   -4.7900 C   0  0  0  0  0  0  0  0  0  0  0  0
   -1.1110   15.7780   -5.1120 C   0  0  0  0  0  0  0  0  0  0  0  0
   -2.6630   17.2810   -6.2320 C   0  0  0  0  0  0  0  0  0  0  0  0
    1.0990   14.7690   -4.1250 C   0  0  0  0  0  0  0  0  0  0  0  0
   -2.1470   14.8420   -4.9270 C   0  0  0  0  0  0  0  0  0  0  0  0
   -3.6620   16.3240   -6.0410 C   0  0  0  0  0  0  0  0  0  0  0  0
    0.8410   13.3300   -4.6240 C   0  0  0  0  0  0  0  0  0  0  0  0
   -3.4180   15.1330   -5.4010 C   0  0  0  0  0  0  0  0  0  0  0  0
    0.5870   12.6000   -3.3790 C   0  0  0  0  0  0  0  0  0  0  0  0
    0.4770   13.3880   -2.4390 N   0  0  0  0  0  0  0  0  0  0  0  0
    0.5110   11.2560   -3.3710 O   0  0  0  0  0  0  0  0  0  0  0  0
    0.2590   13.0450   -1.1220 C   0  0  0  0  0  0  0  0  0  0  0  0
    0.7350   14.2860   -0.3610 C   0  0  0  0  0  0  0  0  0  0  0  0
    0.1240   14.3950    0.9650 N   0  0  0  0  0  0  0  0  0  0  0  0
   -1.1500   14.5530    0.7430 C   0  0  0  0  0  0  0  0  0  0  0  0
   -2.1300   14.6480    1.6070 N   0  0  0  0  0  0  0  0  0  0  0  0
   -1.5510   14.6270   -0.9120 S   0  0  0  0  0  0  0  0  0  0  0  0
   -3.3070   14.7830    0.8490 C   0  0  0  0  0  0  0  0  0  0  0  0
   -3.1600   14.7850   -0.5320 C   0  0  0  0  0  0  0  0  0  0  0  0
   -4.6230   14.9080    1.3000 C   0  0  0  0  0  0  0  0  0  0  0  0
   -4.2040   14.8960   -1.4370 C   0  0  0  0  0  0  0  0  0  0  0  0
   -5.6970   14.9890    0.4200 C   0  0  0  0  0  0  0  0  0  0  0  0
   -5.4880   14.9920   -0.9390 C   0  0  0  0  0  0  0  0  0  0  0  0
   -6.9170   15.0560    1.0330 O   0  0  0  0  0  0  0  0  0  0  0  0
   -7.0070   14.5680    2.3680 C   0  0  0  0  0  0  0  0  0  0  0  0
  1  2  1  0
  2  3  1  0
  2  4  1  0
  3  5  2  0
  4  6  2  0
  5  6  1  0
  4  7  1  0
  5  8  1  0
  6  9  1  0
  7 10  2  0
  8 11  1  0
  9 12  2  0
 10 12  1  0
 11 13  1  0
 13 14  2  3
 13 15  1  0
 14 16  1  0
 16 17  1  0
 17 18  1  0
 18 19  1  0
 19 20  2  0
 19 21  1  0
 20 22  1  0
 21 23  1  0
 22 23  2  0
 22 24  1  0
 23 25  1  0
 24 26  2  0
 25 27  2  0
 26 27  1  0
 26 28  1  0
 28 29  1  0
M  END
