mac-x0584-mac-x0161
     RDKit          3D

 22 26  0  0  0  0  0  0  0  0999 V2000
   -3.0210   13.6220   -2.8250 C   0  0  0  0  0  0  0  0  0  0  0  0
   -1.8540   12.5350   -2.9680 C   0  0  1  0  0  0  0  0  0  0  0  0
   -1.9020   11.2250   -3.8090 C   0  0  1  0  0  0  0  0  0  0  0  0
   -3.1140   14.1550   -1.4200 C   0  0  0  0  0  0  0  0  0  0  0  0
   -0.3550   12.9370   -3.0380 C   0  0  1  0  0  0  0  0  0  0  0  0
   -2.0200   14.7190   -0.8520 C   0  0  0  0  0  0  0  0  0  0  0  0
   -4.0790   14.2340   -0.4470 C   0  0  0  0  0  0  0  0  0  0  0  0
   -1.8000   11.4150   -5.2110 O   0  0  0  0  0  0  0  0  0  0  0  0
    0.4010   11.7140   -3.5640 C   0  0  0  0  0  0  0  0  0  0  0  0
    0.0300   14.3210   -3.5210 C   0  0  1  0  0  0  0  0  0  0  0  0
   -2.2990   14.7680    0.5890 C   0  0  0  0  0  0  0  0  0  0  0  0
   -0.9220   15.2140   -1.3550 C   0  0  0  0  0  0  0  0  0  0  0  0
   -3.5940   14.6550    0.8140 N   0  0  0  0  0  0  0  0  0  0  0  0
   -0.5980   10.5830   -3.3340 C   0  0  0  0  0  0  0  0  0  0  0  0
   -1.7160   10.2180   -5.9660 C   0  0  0  0  0  0  0  0  0  0  0  0
   -0.4180   14.6010   -4.9810 C   0  0  0  0  0  0  0  0  0  0  0  0
   -0.6220   15.3260   -2.7080 N   0  0  0  0  0  0  0  0  0  0  0  0
   -0.0520   15.6440   -0.4230 N   0  0  0  0  0  0  0  0  0  0  0  0
   -1.2860   14.9490    1.4790 N   0  0  0  0  0  0  0  0  0  0  0  0
   -1.6550   16.0070   -3.5480 C   0  0  0  0  0  0  0  0  0  0  0  0
   -1.7830   15.2290   -4.8430 C   0  0  0  0  0  0  0  0  0  0  0  0
   -0.2040   15.3560    0.8820 C   0  0  0  0  0  0  0  0  0  0  0  0
  2  1  1  6
  2  3  1  0
  1  4  1  0
  2  5  1  0
  4  6  1  0
  4  7  2  0
  3  8  1  6
  5  9  1  6
  5 10  1  0
  6 11  1  0
  6 12  2  0
  7 13  1  0
 11 13  2  0
  3 14  1  0
  9 14  1  0
  8 15  1  0
 10 16  1  6
 10 17  1  0
 12 17  1  0
 12 18  1  0
 11 19  1  0
 17 20  1  0
 16 21  1  0
 20 21  1  0
 18 22  1  0
 19 22  2  0
M  END
