mac-x0302-mac-x0412
     RDKit          3D

 17 18  0  0  0  0  0  0  0  0999 V2000
    1.6570   14.2950   -3.6770 O   0  0  0  0  0  0  0  0  0  0  0  0
    0.6290   14.0660   -2.8390 C   0  0  0  0  0  0  0  0  0  0  0  0
    0.8200   13.5390   -1.7570 O   0  0  0  0  0  0  0  0  0  0  0  0
   -0.7020   14.5270   -3.3880 C   0  0  0  0  0  0  0  0  0  0  0  0
   -1.6510   14.6290   -2.3000 N   0  0  0  0  0  0  0  0  0  0  0  0
   -2.9030   15.1190   -2.5390 C   0  0  0  0  0  0  0  0  0  0  0  0
   -3.2410   15.5840   -3.6240 O   0  0  0  0  0  0  0  0  0  0  0  0
   -3.8680   15.0580   -1.3810 C   0  0  1  0  0  0  0  0  0  0  0  0
   -4.8680   13.9490   -1.6110 C   0  0  0  0  0  0  0  0  0  0  0  0
   -3.2570   14.7600   -0.0110 C   0  0  0  0  0  0  0  0  0  0  0  0
   -4.3920   14.1410    0.8060 C   0  0  2  0  0  0  0  0  0  0  0  0
   -5.4040   13.5840   -0.2360 C   0  0  1  0  0  0  0  0  0  0  0  0
   -6.8230   14.1370   -0.1000 C   0  0  2  0  0  0  0  0  0  0  0  0
   -5.0370   15.1920    1.6970 C   0  0  0  0  0  0  0  0  0  0  0  0
   -6.9600   15.4810   -0.7930 C   0  0  0  0  0  0  0  0  0  0  0  0
   -7.2900   14.2110    1.3410 C   0  0  0  0  0  0  0  0  0  0  0  0
   -6.3580   14.8560    2.2480 N   0  0  0  0  0  0  0  0  0  0  0  0
  1  2  1  0
  2  3  2  0
  2  4  1  0
  4  5  1  0
  5  6  1  0
  6  7  2  0
  8  6  1  6
  8  9  1  0
  8 10  1  0
 11 10  1  6
 12  9  1  6
 11 12  1  0
 12 13  1  0
 11 14  1  0
 13 15  1  1
 13 16  1  0
 14 17  1  0
 16 17  1  0
M  END
