mac-x0161-mac-x0178
     RDKit          3D

 31 34  0  0  0  0  0  0  0  0999 V2000
   -4.9220   15.2660    1.2410 N   0  0  0  0  0  0  0  0  0  0  0  0
   -3.8470   14.8760    0.3630 C   0  0  2  0  0  0  0  0  0  0  0  0
   -2.5190   15.4980    0.8010 C   0  0  2  0  0  0  0  0  0  0  0  0
   -4.2500   15.3480   -0.9580 N   0  0  0  0  0  0  0  0  0  0  0  0
   -3.2820   14.9310   -1.9700 C   0  0  0  0  0  0  0  0  0  0  0  0
   -1.6590   15.5890   -0.4210 C   0  0  2  0  0  0  0  0  0  0  0  0
   -1.7390   14.6570    1.7190 N   0  0  0  0  0  0  0  0  0  0  0  0
   -2.0770   14.5310   -1.2820 N   0  0  0  0  0  0  0  0  0  0  0  0
   -0.2950   15.4060    0.0800 N   0  0  0  0  0  0  0  0  0  0  0  0
   -0.4260   14.4580    1.1660 C   0  0  0  0  0  0  0  0  0  0  0  0
   -0.9350   14.0430   -2.0140 C   0  0  1  0  0  0  0  0  0  0  0  0
   -0.8600   12.6790   -2.5830 C   0  0  0  0  0  0  0  0  0  0  0  0
   -0.5960   14.8030   -3.1990 C   0  0  0  0  0  0  0  0  0  0  0  0
   -1.2420   12.1480   -3.7910 C   0  0  0  0  0  0  0  0  0  0  0  0
   -0.2700   11.7200   -1.8010 O   0  0  0  0  0  0  0  0  0  0  0  0
   -1.2860   15.8820   -3.7490 C   0  0  0  0  0  0  0  0  0  0  0  0
    0.5330   14.2860   -3.7660 C   0  0  0  0  0  0  0  0  0  0  0  0
    1.2550   13.1330   -3.1650 C   0  0  0  0  0  0  0  0  0  0  0  0
   -0.2660   10.5370   -2.5200 N   0  0  0  0  0  0  0  0  0  0  0  0
   -0.8470   10.8190   -3.7060 C   0  0  0  0  0  0  0  0  0  0  0  0
   -0.8070   16.4280   -4.9040 C   0  0  0  0  0  0  0  0  0  0  0  0
    1.0010   14.8370   -4.9040 C   0  0  0  0  0  0  0  0  0  0  0  0
   -1.0130    9.9040   -4.6840 O   0  0  0  0  0  0  0  0  0  0  0  0
   -1.6220   17.7820   -5.7030 S   0  0  0  0  0  0  0  0  0  0  0  0
    1.9720   13.1720   -2.1840 O   0  0  0  0  0  0  0  0  0  0  0  0
    1.0020   11.9960   -3.8230 O   0  0  0  0  0  0  0  0  0  0  0  0
    0.3320   15.9120   -5.4640 C   0  0  0  0  0  0  0  0  0  0  0  0
   -1.6940   10.3870   -5.8380 C   0  0  0  0  0  0  0  0  0  0  0  0
   -0.3360   18.4950   -6.5100 N   0  0  0  0  0  0  0  0  0  0  0  0
   -2.4890   17.2500   -6.7300 O   0  0  0  0  0  0  0  0  0  0  0  0
   -2.0990   18.6940   -4.7120 O   0  0  0  0  0  0  0  0  0  0  0  0
  2  1  1  1
  2  3  1  0
  2  4  1  0
  4  5  1  0
  3  6  1  0
  3  7  1  1
  5  8  1  0
  6  8  1  0
  6  9  1  1
  7 10  1  0
  9 10  1  0
  8 11  1  0
 11 12  1  6
 11 13  1  0
 12 14  2  0
 12 15  1  0
 13 16  2  0
 13 17  1  0
 17 18  1  0
 15 19  1  0
 14 20  1  0
 19 20  2  0
 16 21  1  0
 17 22  2  0
 20 23  1  0
 21 24  1  0
 18 25  2  0
 18 26  1  0
 21 27  2  0
 22 27  1  0
 23 28  1  0
 24 29  1  0
 24 30  2  0
 24 31  2  0
M  END
