mac-x0301-diamond-x1015_0_A
     RDKit          3D

 24 27  0  0  0  0  0  0  0  0999 V2000
   -1.3050   14.1770   -2.7040 C   0  0  0  0  0  0  0  0  0  0  0  0
   -1.1230   14.2790   -3.9440 N   0  0  0  0  0  0  0  0  0  0  0  0
   -0.1400   13.3020   -3.5870 C   0  0  1  0  0  0  0  0  0  0  0  0
   -2.1340   14.7090   -1.6750 C   0  0  0  0  0  0  0  0  0  0  0  0
   -1.5710   14.6130   -0.4280 C   0  0  0  0  0  0  0  0  0  0  0  0
   -3.4000   15.2660   -1.8380 C   0  0  0  0  0  0  0  0  0  0  0  0
   -2.2190   15.0480    0.6850 C   0  0  0  0  0  0  0  0  0  0  0  0
   -4.0740   15.7170   -0.6860 C   0  0  0  0  0  0  0  0  0  0  0  0
   -0.3460   14.0910   -0.1390 O   0  0  0  0  0  0  0  0  0  0  0  0
    0.1870   12.0560   -4.1490 N   0  0  0  0  0  0  0  0  0  0  0  0
    1.1990   13.7850   -3.0780 C   0  0  0  0  0  0  0  0  0  0  0  0
   -3.4840   15.6090    0.5920 C   0  0  0  0  0  0  0  0  0  0  0  0
   -1.4660   14.8530    1.8140 O   0  0  0  0  0  0  0  0  0  0  0  0
   -0.2060   14.4640    1.2340 C   0  0  0  0  0  0  0  0  0  0  0  0
    0.7130   11.5260   -2.9620 C   0  0  0  0  0  0  0  0  0  0  0  0
    1.5790   12.5340   -2.4720 N   0  0  0  0  0  0  0  0  0  0  0  0
   -0.3750   11.3300   -5.2160 C   0  0  0  0  0  0  0  0  0  0  0  0
    0.5130   10.4590   -2.3780 O   0  0  0  0  0  0  0  0  0  0  0  0
    0.0800   11.5210   -6.5220 C   0  0  0  0  0  0  0  0  0  0  0  0
   -1.3910   10.3870   -4.9980 C   0  0  0  0  0  0  0  0  0  0  0  0
   -0.4530   10.7920   -7.5850 C   0  0  0  0  0  0  0  0  0  0  0  0
   -1.9310    9.6530   -6.0590 C   0  0  0  0  0  0  0  0  0  0  0  0
   -1.4550    9.8590   -7.3470 C   0  0  0  0  0  0  0  0  0  0  0  0
   -2.1060    8.9560   -8.6540 Cl  0  0  0  0  0  0  0  0  0  0  0  0
  1  2  2  3
  3  2  1  6
  1  4  1  0
  4  5  1  0
  4  6  2  0
  5  7  2  0
  6  8  1  0
  5  9  1  0
  3 10  1  0
  3 11  1  0
  7 12  1  0
  8 12  2  0
  7 13  1  0
  9 14  1  0
 13 14  1  0
 10 15  1  0
 11 16  1  0
 15 16  1  0
 10 17  1  0
 15 18  2  0
 17 19  2  0
 17 20  1  0
 19 21  1  0
 20 22  2  0
 21 23  2  0
 22 23  1  0
 23 24  1  0
M  END
