mac-x0161-mac-x0306
     RDKit          3D

 22 25  0  0  0  0  0  0  0  0999 V2000
   -3.9500   16.5620    1.1220 N   0  0  0  0  0  0  0  0  0  0  0  0
   -3.8300   15.1530    0.7880 C   0  0  2  0  0  0  0  0  0  0  0  0
   -2.3740   14.6650    0.6160 C   0  0  1  0  0  0  0  0  0  0  0  0
   -4.7810   14.6520   -0.3460 C   0  0  0  0  0  0  0  0  0  0  0  0
   -3.9630   14.5760   -1.7510 C   0  0  0  0  0  0  0  0  0  0  0  0
   -1.7740   15.1570   -0.6540 C   0  0  2  0  0  0  0  0  0  0  0  0
   -1.3680   15.1130    1.5800 N   0  0  0  0  0  0  0  0  0  0  0  0
   -5.3070   13.3720    0.2790 N   0  0  0  0  0  0  0  0  0  0  0  0
   -6.0310   15.5190   -0.4820 N   0  0  0  0  0  0  0  0  0  0  0  0
   -2.4400   14.5970   -1.7790 N   0  0  0  0  0  0  0  0  0  0  0  0
   -0.3930   14.7050   -0.5390 N   0  0  0  0  0  0  0  0  0  0  0  0
   -0.1250   14.7410    0.8950 C   0  0  0  0  0  0  0  0  0  0  0  0
   -7.0030   14.8600    0.0730 C   0  0  0  0  0  0  0  0  0  0  0  0
   -6.5600   13.5670    0.5470 C   0  0  0  0  0  0  0  0  0  0  0  0
   -1.7370   14.7370   -3.0700 C   0  0  0  0  0  0  0  0  0  0  0  0
   -1.1870   13.4280   -3.5130 C   0  0  0  0  0  0  0  0  0  0  0  0
   -1.4680   12.5860   -4.5610 C   0  0  0  0  0  0  0  0  0  0  0  0
   -0.1850   12.8770   -2.7580 O   0  0  0  0  0  0  0  0  0  0  0  0
    0.1910   11.6590   -3.3080 N   0  0  0  0  0  0  0  0  0  0  0  0
   -0.5920   11.5120   -4.3770 C   0  0  0  0  0  0  0  0  0  0  0  0
   -0.5240   10.4270   -5.1780 O   0  0  0  0  0  0  0  0  0  0  0  0
   -1.6830   10.2440   -5.9830 C   0  0  0  0  0  0  0  0  0  0  0  0
  2  1  1  6
  2  3  1  0
  2  4  1  0
  4  5  1  0
  3  6  1  0
  3  7  1  1
  4  8  1  0
  4  9  1  0
  5 10  1  0
  6 10  1  0
  6 11  1  1
  7 12  1  0
 11 12  1  0
  9 13  2  0
  8 14  2  0
 13 14  1  0
 10 15  1  0
 15 16  1  0
 16 17  2  0
 16 18  1  0
 18 19  1  0
 17 20  1  0
 19 20  2  0
 20 21  1  0
 21 22  1  0
M  END
