mac-x0392-mac-x0402
     RDKit          3D

 20 22  0  0  0  0  0  0  0  0999 V2000
    0.4640   13.5370   -0.2800 N   0  0  0  0  0  0  0  0  0  0  0  0
   -0.6680   14.2890    0.0120 C   0  0  0  0  0  0  0  0  0  0  0  0
   -1.0790   14.4660    1.3140 C   0  0  0  0  0  0  0  0  0  0  0  0
   -1.4600   14.8930   -0.9590 C   0  0  0  0  0  0  0  0  0  0  0  0
   -1.2100   14.7600   -2.3850 C   0  0  0  0  0  0  0  0  0  0  0  0
   -2.5830   15.6520   -0.6160 C   0  0  0  0  0  0  0  0  0  0  0  0
   -2.1600   15.1650    1.6810 N   0  0  0  0  0  0  0  0  0  0  0  0
   -2.1930   14.6040   -3.1820 N   0  0  0  0  0  0  0  0  0  0  0  0
    0.0790   14.7800   -2.7770 O   0  0  0  0  0  0  0  0  0  0  0  0
   -2.8920   15.7590    0.7140 C   0  0  0  0  0  0  0  0  0  0  0  0
   -3.3230   14.6680   -2.3290 C   0  0  0  0  0  0  0  0  0  0  0  0
   -4.5560   15.1260   -2.7680 C   0  0  0  0  0  0  0  0  0  0  0  0
   -3.1780   14.2750   -0.9820 C   0  0  0  0  0  0  0  0  0  0  0  0
   -4.2680   14.3770   -0.1010 C   0  0  0  0  0  0  0  0  0  0  0  0
   -5.6480   15.2190   -1.8810 C   0  0  0  0  0  0  0  0  0  0  0  0
   -5.5020   14.8450   -0.5250 C   0  0  0  0  0  0  0  0  0  0  0  0
   -4.3620   13.9950    1.5780 S   0  0  0  0  0  0  0  0  0  0  0  0
   -6.0000   14.4950    1.6040 C   0  0  0  0  0  0  0  0  0  0  0  0
   -6.4790   14.9000    0.4550 N   0  0  0  0  0  0  0  0  0  0  0  0
   -6.7410   14.4750    2.7370 N   0  0  0  0  0  0  0  0  0  0  0  0
  1  2  1  0
  2  3  2  0
  2  4  1  0
  4  5  1  0
  4  6  2  0
  3  7  1  0
  5  8  2  3
  5  9  1  0
  6 10  1  0
  7 10  2  0
  8 11  1  0
 11 12  2  0
 11 13  1  0
 13 14  2  0
 12 15  1  0
 14 16  1  0
 15 16  2  0
 14 17  1  0
 17 18  1  0
 16 19  1  0
 18 19  2  0
 18 20  1  0
M  END
