mac-x0392-diamond-x0465_0_A
     RDKit          3D

 24 25  0  0  0  0  0  0  0  0999 V2000
    0.2710   14.1690    0.0540 N   0  0  0  0  0  0  0  0  0  0  0  0
   -1.1000   14.4700   -0.0200 C   0  0  0  0  0  0  0  0  0  0  0  0
   -1.8850   14.5360    1.1200 C   0  0  0  0  0  0  0  0  0  0  0  0
   -1.7570   14.7250   -1.2290 C   0  0  0  0  0  0  0  0  0  0  0  0
   -0.9920   14.6860   -2.5000 C   0  0  0  0  0  0  0  0  0  0  0  0
   -3.1300   15.0260   -1.2440 C   0  0  0  0  0  0  0  0  0  0  0  0
   -3.2080   14.8250    1.1410 N   0  0  0  0  0  0  0  0  0  0  0  0
   -1.4720   14.3320   -3.5670 O   0  0  0  0  0  0  0  0  0  0  0  0
    0.2760   15.1230   -2.2810 O   0  0  0  0  0  0  0  0  0  0  0  0
   -3.8040   15.0640   -0.0400 C   0  0  0  0  0  0  0  0  0  0  0  0
    1.3420   14.1710   -2.4350 C   0  0  0  0  0  0  0  0  0  0  0  0
    0.9950   12.7710   -2.1700 N   0  0  0  0  0  0  0  0  0  0  0  0
    0.7270   11.9920   -3.1630 C   0  0  0  0  0  0  0  0  0  0  0  0
    0.7500   12.4640   -4.6340 C   0  0  1  0  0  0  0  0  0  0  0  0
    0.4040   10.6850   -2.9610 O   0  0  0  0  0  0  0  0  0  0  0  0
    2.0940   13.1330   -4.9120 C   0  0  0  0  0  0  0  0  0  0  0  0
    0.6550   11.4210   -5.6110 O   0  0  0  0  0  0  0  0  0  0  0  0
   -0.5590   10.7870   -5.6990 C   0  0  0  0  0  0  0  0  0  0  0  0
   -0.6730    9.7170   -6.6010 C   0  0  0  0  0  0  0  0  0  0  0  0
   -1.6570   11.1720   -4.9270 C   0  0  0  0  0  0  0  0  0  0  0  0
    0.3720    9.3370   -7.3530 F   0  0  0  0  0  0  0  0  0  0  0  0
   -1.8730    9.0280   -6.7370 C   0  0  0  0  0  0  0  0  0  0  0  0
   -2.8680   10.4800   -5.0640 C   0  0  0  0  0  0  0  0  0  0  0  0
   -2.9720    9.4090   -5.9670 C   0  0  0  0  0  0  0  0  0  0  0  0
  1  2  1  0
  2  3  2  0
  2  4  1  0
  4  5  1  0
  4  6  2  0
  3  7  1  0
  5  8  2  0
  5  9  1  0
  6 10  1  0
  7 10  2  0
  9 11  1  0
 11 12  1  0
 12 13  2  3
 13 14  1  0
 13 15  1  0
 14 16  1  6
 14 17  1  0
 17 18  1  0
 18 19  2  0
 18 20  1  0
 19 21  1  0
 19 22  1  0
 20 23  2  0
 22 24  2  0
 23 24  1  0
M  END
