mac-x0564-diamond-x0681_0_A
     RDKit          3D

 25 29  0  0  0  0  0  0  0  0999 V2000
    0.6770   14.4910   -1.6380 O   0  0  0  0  0  0  0  0  0  0  0  0
   -0.0910   14.4620   -2.5970 C   0  0  0  0  0  0  0  0  0  0  0  0
    0.3310   14.1940   -3.8920 N   0  0  0  0  0  0  0  0  0  0  0  0
   -1.5130   14.6890   -2.5190 C   0  0  0  0  0  0  0  0  0  0  0  0
   -2.3920   14.6500   -3.5720 C   0  0  0  0  0  0  0  0  0  0  0  0
   -0.5460   14.1750   -4.8500 C   0  0  0  0  0  0  0  0  0  0  0  0
   -2.1700   14.9710   -1.3850 O   0  0  0  0  0  0  0  0  0  0  0  0
   -1.9160   14.3830   -4.8010 N   0  0  0  0  0  0  0  0  0  0  0  0
   -3.5010   15.1110   -1.7170 C   0  0  0  0  0  0  0  0  0  0  0  0
   -3.6930   14.9180   -3.0530 C   0  0  0  0  0  0  0  0  0  0  0  0
   -5.0130   15.0230   -3.5030 C   0  0  0  0  0  0  0  0  0  0  0  0
   -4.4680   15.4020   -0.7650 C   0  0  0  0  0  0  0  0  0  0  0  0
   -6.0410   15.3340   -2.5730 C   0  0  0  0  0  0  0  0  0  0  0  0
   -5.7780   15.5280   -1.2160 C   0  0  0  0  0  0  0  0  0  0  0  0
   -3.8130   15.4550    0.5420 C   0  0  2  0  0  0  0  0  0  0  0  0
   -3.1880   14.1300    0.1450 C   0  0  1  0  0  0  0  0  0  0  0  0
   -4.5840   15.1740    1.8200 C   0  0  0  0  0  0  0  0  0  0  0  0
   -1.8230   13.6950    0.5610 C   0  0  0  0  0  0  0  0  0  0  0  0
   -4.3250   13.1410   -0.0490 C   0  0  0  0  0  0  0  0  0  0  0  0
   -5.8320   14.3520    1.5390 C   0  0  0  0  0  0  0  0  0  0  0  0
   -1.0620   13.0880   -0.2180 O   0  0  0  0  0  0  0  0  0  0  0  0
   -5.5290   13.2920    0.6140 N   0  0  0  0  0  0  0  0  0  0  0  0
   -4.3860   12.0800   -0.8290 N   0  0  0  0  0  0  0  0  0  0  0  0
   -6.3690   12.2940    0.2440 C   0  0  0  0  0  0  0  0  0  0  0  0
   -5.6480   11.5560   -0.6540 C   0  0  0  0  0  0  0  0  0  0  0  0
  1  2  2  0
  2  3  1  0
  2  4  1  0
  4  5  2  0
  3  6  2  0
  4  7  1  0
  5  8  1  0
  6  8  1  0
  7  9  1  0
  5 10  1  0
  9 10  2  0
 10 11  1  0
  9 12  1  0
 11 13  2  0
 12 14  2  0
 13 14  1  0
 15 12  1  6
 15 16  1  0
 15 17  1  0
 16 18  1  1
 16 19  1  0
 17 20  1  0
 18 21  2  0
 19 22  1  0
 20 22  1  0
 19 23  2  0
 22 24  1  0
 23 25  1  0
 24 25  2  0
M  END
