mac-x0373-mac-x0380
     RDKit          3D

 24 26  0  0  0  0  0  0  0  0999 V2000
    0.1820   13.2640   -1.3460 O   0  0  0  0  0  0  0  0  0  0  0  0
   -0.2430   14.3540   -2.0200 C   0  0  0  0  0  0  0  0  0  0  0  0
    0.5090   15.3140   -2.0710 O   0  0  0  0  0  0  0  0  0  0  0  0
   -1.6410   14.2490   -2.6600 C   0  0  1  0  0  0  0  0  0  0  0  0
   -1.8250   15.3490   -3.7030 C   0  0  0  0  0  0  0  0  0  0  0  0
   -1.8150   12.9710   -3.5020 C   0  0  0  0  0  0  0  0  0  0  0  0
   -2.8060   14.3840   -1.6050 C   0  0  2  0  0  0  0  0  0  0  0  0
   -2.8990   15.6710   -4.2080 O   0  0  0  0  0  0  0  0  0  0  0  0
   -1.1170   12.8250   -4.7230 C   0  0  0  0  0  0  0  0  0  0  0  0
   -2.6610   11.9260   -3.1000 C   0  0  0  0  0  0  0  0  0  0  0  0
   -3.7190   15.6060   -1.6740 C   0  0  0  0  0  0  0  0  0  0  0  0
   -2.4430   14.1890   -0.1440 C   0  0  0  0  0  0  0  0  0  0  0  0
   -1.2640   11.6790   -5.5030 C   0  0  0  0  0  0  0  0  0  0  0  0
   -2.8060   10.7800   -3.8820 C   0  0  0  0  0  0  0  0  0  0  0  0
   -4.6600   15.8160   -0.7140 C   0  0  0  0  0  0  0  0  0  0  0  0
   -3.3910   14.3780    0.7800 C   0  0  0  0  0  0  0  0  0  0  0  0
   -2.1100   10.6560   -5.0820 C   0  0  0  0  0  0  0  0  0  0  0  0
   -4.7830   14.7860    0.3710 C   0  0  1  0  0  0  0  0  0  0  0  0
   -5.5660   15.1540    1.5340 N   0  0  0  0  0  0  0  0  0  0  0  0
   -5.4600   13.8050   -0.5200 C   0  0  0  0  0  0  0  0  0  0  0  0
   -6.8560   14.7680    1.8850 C   0  0  0  0  0  0  0  0  0  0  0  0
   -7.1100   13.2840   -0.3830 S   0  0  0  0  0  0  0  0  0  0  0  0
   -7.3600   15.0680    2.9640 O   0  0  0  0  0  0  0  0  0  0  0  0
   -7.7740   13.9660    1.0390 C   0  0  0  0  0  0  0  0  0  0  0  0
  1  2  1  0
  2  3  2  0
  4  2  1  0
  4  5  1  6
  4  6  1  0
  4  7  1  0
  5  8  2  0
  6  9  2  0
  6 10  1  0
  7 11  1  1
  7 12  1  0
  9 13  1  0
 10 14  2  0
 11 15  2  0
 12 16  2  0
 13 17  2  0
 14 17  1  0
 18 15  1  6
 16 18  1  0
 18 19  1  0
 18 20  1  0
 19 21  1  0
 20 22  2  0
 21 23  2  0
 21 24  1  0
 22 24  2  0
M  END
