mac-x0180-diamond-x0855_0_A
     RDKit          3D

 24 25  0  0  0  0  0  0  0  0999 V2000
   -7.7680   14.5060    1.5270 C   0  0  0  0  0  0  0  0  0  0  0  0
   -6.7810   14.6920    0.4030 C   0  0  0  0  0  0  0  0  0  0  0  0
   -7.1640   14.7310   -0.7600 O   0  0  0  0  0  0  0  0  0  0  0  0
   -5.4710   14.8060    0.8520 N   0  0  0  0  0  0  0  0  0  0  0  0
   -4.3340   14.8340    0.0160 C   0  0  0  0  0  0  0  0  0  0  0  0
   -3.0360   14.6090    0.4680 C   0  0  0  0  0  0  0  0  0  0  0  0
   -4.5390   15.1020   -1.3500 C   0  0  0  0  0  0  0  0  0  0  0  0
   -1.9540   14.6450   -0.4240 C   0  0  0  0  0  0  0  0  0  0  0  0
   -3.4640   15.1380   -2.2430 C   0  0  0  0  0  0  0  0  0  0  0  0
   -2.1600   14.9080   -1.7880 C   0  0  0  0  0  0  0  0  0  0  0  0
   -1.0420   14.9640   -2.7780 C   0  0  0  0  0  0  0  0  0  0  0  0
   -1.2100   15.0870   -3.9820 O   0  0  0  0  0  0  0  0  0  0  0  0
    0.1560   14.8800   -2.1500 O   0  0  0  0  0  0  0  0  0  0  0  0
    1.2370   14.4340   -2.9800 C   0  0  0  0  0  0  0  0  0  0  0  0
    1.5830   13.0910   -2.6030 O   0  0  0  0  0  0  0  0  0  0  0  0
    0.9420   12.1070   -3.2930 C   0  0  0  0  0  0  0  0  0  0  0  0
    0.6380   11.0230   -2.7980 O   0  0  0  0  0  0  0  0  0  0  0  0
    0.6330   12.4650   -4.7210 C   0  0  0  0  0  0  0  0  0  0  0  0
   -0.4260   11.6150   -5.2160 N   0  0  0  0  0  0  0  0  0  0  0  0
   -0.3350   10.6710   -6.1960 C   0  0  0  0  0  0  0  0  0  0  0  0
   -1.6620   11.7180   -4.6830 N   0  0  0  0  0  0  0  0  0  0  0  0
   -1.5850   10.1300   -6.2890 C   0  0  0  0  0  0  0  0  0  0  0  0
   -2.3710   10.8020   -5.3460 C   0  0  0  0  0  0  0  0  0  0  0  0
   -2.1700    8.7730   -7.4220 Br  0  0  0  0  0  0  0  0  0  0  0  0
  1  2  1  0
  2  3  2  0
  2  4  1  0
  4  5  1  0
  5  6  2  0
  5  7  1  0
  6  8  1  0
  7  9  2  0
  8 10  2  0
  9 10  1  0
 10 11  1  0
 11 12  2  0
 11 13  1  0
 13 14  1  0
 14 15  1  0
 15 16  1  0
 16 17  2  0
 16 18  1  0
 18 19  1  0
 19 20  1  0
 19 21  1  0
 20 22  2  0
 21 23  2  0
 22 23  1  0
 22 24  1  0
M  END
