mac-x0441-mac-x0159
     RDKit          3D

 35 39  0  0  0  0  0  0  0  0999 V2000
    0.2940   10.3400   -3.1840 O   0  0  0  0  0  0  0  0  0  0  0  0
    0.5930   11.6390   -3.0270 C   0  0  0  0  0  0  0  0  0  0  0  0
    0.6780   12.1080   -1.8870 O   0  0  0  0  0  0  0  0  0  0  0  0
    0.8140   12.4020   -4.3140 C   0  0  2  0  0  0  0  0  0  0  0  0
    0.5860   13.8990   -3.9420 C   0  0  0  0  0  0  0  0  0  0  0  0
    0.3540   11.6670   -5.5410 N   0  0  0  0  0  0  0  0  0  0  0  0
   -0.7710   14.6650   -3.7960 C   0  0  1  0  0  0  0  0  0  0  0  0
    1.1330   11.6970   -6.6930 N   0  0  0  0  0  0  0  0  0  0  0  0
   -0.7620   10.8840   -5.7540 C   0  0  0  0  0  0  0  0  0  0  0  0
    0.4950   10.9030   -7.6120 C   0  0  0  0  0  0  0  0  0  0  0  0
   -0.6780   10.3950   -7.0490 C   0  0  0  0  0  0  0  0  0  0  0  0
   -1.8750   10.5660   -4.8120 C   0  0  0  0  0  0  0  0  0  0  0  0
   -1.4920   14.8370   -2.4670 N   0  0  0  0  0  0  0  0  0  0  0  0
   -0.3910   15.9950   -4.4200 C   0  0  0  0  0  0  0  0  0  0  0  0
    0.8950   10.5340   -9.0410 C   0  0  0  0  0  0  0  0  0  0  0  0
   -1.6790    9.4880   -7.6650 C   0  0  0  0  0  0  0  0  0  0  0  0
   -3.0010    9.7960   -5.5410 C   0  0  0  0  0  0  0  0  0  0  0  0
   -2.9500   14.8720   -2.5940 C   0  0  0  0  0  0  0  0  0  0  0  0
   -1.0370   14.2520   -1.1930 C   0  0  2  0  0  0  0  0  0  0  0  0
    0.8540   16.5970   -4.3770 C   0  0  0  0  0  0  0  0  0  0  0  0
   -1.3470   16.7190   -5.1250 N   0  0  0  0  0  0  0  0  0  0  0  0
    1.5430    9.3290   -9.0550 F   0  0  0  0  0  0  0  0  0  0  0  0
   -0.2010   10.3410   -9.8210 F   0  0  0  0  0  0  0  0  0  0  0  0
    1.6500   11.3650   -9.7740 F   0  0  0  0  0  0  0  0  0  0  0  0
   -2.4630    8.7720   -6.5590 C   0  0  0  0  0  0  0  0  0  0  0  0
   -3.6100   15.4880   -1.4630 N   0  0  0  0  0  0  0  0  0  0  0  0
   -2.0220   14.2940    0.0310 C   0  0  2  0  0  0  0  0  0  0  0  0
    0.1460   14.9290   -0.6740 N   0  0  0  0  0  0  0  0  0  0  0  0
   -0.8150   17.8280   -5.5920 C   0  0  0  0  0  0  0  0  0  0  0  0
    0.8380   18.0780   -5.2260 S   0  0  0  0  0  0  0  0  0  0  0  0
   -1.5510   18.8370   -6.3960 C   0  0  0  0  0  0  0  0  0  0  0  0
   -3.4920   14.7380   -0.2530 C   0  0  1  0  0  0  0  0  0  0  0  0
   -1.3470   15.1640    1.0360 N   0  0  0  0  0  0  0  0  0  0  0  0
    0.0380   14.8460    0.7590 C   0  0  0  0  0  0  0  0  0  0  0  0
   -4.0100   15.6460    0.7540 N   0  0  0  0  0  0  0  0  0  0  0  0
  1  2  1  0
  2  3  2  0
  2  4  1  0
  4  5  1  1
  4  6  1  0
  7  5  1  1
  6  8  1  0
  6  9  1  0
  8 10  2  0
  9 11  2  0
 10 11  1  0
  9 12  1  0
  7 13  1  0
  7 14  1  0
 10 15  1  0
 11 16  1  0
 12 17  1  0
 13 18  1  0
 13 19  1  0
 14 20  2  0
 14 21  1  0
 15 22  1  0
 15 23  1  0
 15 24  1  0
 16 25  1  0
 17 25  1  0
 18 26  1  0
 19 27  1  0
 19 28  1  1
 21 29  2  0
 20 30  1  0
 29 30  1  0
 29 31  1  0
 26 32  1  0
 27 32  1  0
 27 33  1  1
 28 34  1  0
 33 34  1  0
 32 35  1  1
M  END
