mac-x0380-diamond-x0895_0_A
     RDKit          3D

 15 16  0  0  0  0  0  0  0  0999 V2000
   -1.3880   14.6590   -2.7630 O   0  0  0  0  0  0  0  0  0  0  0  0
   -2.6770   15.0520   -2.8220 C   0  0  0  0  0  0  0  0  0  0  0  0
   -3.2680   15.0430   -3.8850 O   0  0  0  0  0  0  0  0  0  0  0  0
   -3.2310   15.4840   -1.4830 C   0  0  1  0  0  0  0  0  0  0  0  0
   -4.7590   15.5200   -1.4640 C   0  0  0  0  0  0  0  0  0  0  0  0
   -2.5750   14.7450   -0.3260 C   0  0  0  0  0  0  0  0  0  0  0  0
   -5.4030   14.4460   -0.6020 C   0  0  1  0  0  0  0  0  0  0  0  0
   -3.3640   14.6540    0.9520 C   0  0  0  0  0  0  0  0  0  0  0  0
   -2.7160   14.7810    2.0150 O   0  0  0  0  0  0  0  0  0  0  0  0
   -4.8820   14.3370    0.8440 C   0  0  1  0  0  0  0  0  0  0  0  0
   -7.2110   14.6390   -0.6940 S   0  0  0  0  0  0  0  0  0  0  0  0
   -5.7090   14.9220    1.9210 N   0  0  0  0  0  0  0  0  0  0  0  0
   -7.9440   14.7380    0.9190 C   0  0  0  0  0  0  0  0  0  0  0  0
   -7.0650   14.6860    2.1170 C   0  0  0  0  0  0  0  0  0  0  0  0
   -7.6070   14.4680    3.1860 O   0  0  0  0  0  0  0  0  0  0  0  0
  1  2  1  0
  2  3  2  0
  4  2  1  6
  4  5  1  0
  4  6  1  0
  7  5  1  1
  6  8  1  0
  8  9  2  0
  7 10  1  0
  8 10  1  0
  7 11  1  0
 10 12  1  1
 11 13  2  0
 12 14  1  0
 13 14  1  0
 14 15  2  0
M  END
