mac-x0394-mac-x0341
     RDKit          3D

 27 29  0  0  0  0  0  0  0  0999 V2000
    0.8430   18.2270   -4.8080 Cl  0  0  0  0  0  0  0  0  0  0  0  0
    0.2680   16.6230   -4.8280 C   0  0  0  0  0  0  0  0  0  0  0  0
   -1.0450   16.3660   -5.2190 C   0  0  0  0  0  0  0  0  0  0  0  0
    1.1240   15.5950   -4.4570 C   0  0  0  0  0  0  0  0  0  0  0  0
    0.6700   14.2760   -4.4750 C   0  0  0  0  0  0  0  0  0  0  0  0
   -1.4960   15.0350   -5.2410 C   0  0  0  0  0  0  0  0  0  0  0  0
   -2.8840   14.6440   -5.6640 C   0  0  0  0  0  0  0  0  0  0  0  0
    1.5430   13.1230   -4.0810 C   0  0  0  0  0  0  0  0  0  0  0  0
   -0.6370   14.0190   -4.8700 C   0  0  0  0  0  0  0  0  0  0  0  0
    0.9650   12.4070   -2.8870 C   0  0  0  0  0  0  0  0  0  0  0  0
   -3.9130   15.4900   -5.0050 C   0  0  0  0  0  0  0  0  0  0  0  0
    0.3110   11.2760   -3.2290 O   0  0  0  0  0  0  0  0  0  0  0  0
    1.0210   12.7470   -1.7250 O   0  0  0  0  0  0  0  0  0  0  0  0
   -4.4370   14.9270   -3.6800 C   0  0  0  0  0  0  0  0  0  0  0  0
   -5.9020   14.4850   -3.6710 C   0  0  0  0  0  0  0  0  0  0  0  0
   -6.5760   14.6790   -2.3830 N   0  0  0  0  0  0  0  0  0  0  0  0
   -6.0130   14.8170   -1.2230 C   0  0  0  0  0  0  0  0  0  0  0  0
   -6.6700   14.9470   -0.0200 N   0  0  0  0  0  0  0  0  0  0  0  0
   -4.5120   14.8140   -1.0800 C   0  0  0  0  0  0  0  0  0  0  0  0
   -6.0660   14.8040    1.1910 C   0  0  0  0  0  0  0  0  0  0  0  0
   -3.9930   14.7680    0.2210 C   0  0  0  0  0  0  0  0  0  0  0  0
   -3.6470   14.8470   -2.1690 C   0  0  0  0  0  0  0  0  0  0  0  0
   -6.8600   14.7410    2.2870 N   0  0  0  0  0  0  0  0  0  0  0  0
   -4.7980   14.7310    1.3580 N   0  0  0  0  0  0  0  0  0  0  0  0
   -2.6130   14.7460    0.4150 C   0  0  0  0  0  0  0  0  0  0  0  0
   -2.2690   14.8240   -1.9690 C   0  0  0  0  0  0  0  0  0  0  0  0
   -1.7500   14.7700   -0.6770 C   0  0  0  0  0  0  0  0  0  0  0  0
  1  2  1  0
  2  3  2  0
  2  4  1  0
  4  5  2  0
  3  6  1  0
  6  7  1  0
  5  8  1  0
  5  9  1  0
  6  9  2  0
  8 10  1  0
  7 11  1  0
 10 12  1  0
 10 13  2  0
 11 14  1  0
 14 15  1  0
 15 16  1  0
 16 17  2  3
 17 18  1  0
 17 19  1  0
 18 20  1  0
 19 21  2  0
 19 22  1  0
 20 23  1  0
 20 24  2  0
 21 24  1  0
 21 25  1  0
 22 26  2  0
 25 27  2  0
 26 27  1  0
M  END
