mac-x0282-mac-x0224
     RDKit          3D

 21 23  0  0  0  0  0  0  0  0999 V2000
   -4.8900   14.0440    1.5590 C   0  0  0  0  0  0  0  0  0  0  0  0
   -3.2120   13.6580    1.1890 S   0  0  1  0  0  0  0  0  0  0  0  0
   -2.9320   13.8780   -0.5300 C   0  0  0  0  0  0  0  0  0  0  0  0
   -2.1050   14.7950    1.7050 N   0  0  0  0  0  0  0  0  0  0  0  0
   -2.8010   15.4320    0.7750 C   0  0  0  0  0  0  0  0  0  0  0  0
   -0.7100   14.7000    1.4660 C   0  0  0  0  0  0  0  0  0  0  0  0
   -1.6180   13.7760   -0.9600 C   0  0  0  0  0  0  0  0  0  0  0  0
   -3.9630   14.1680   -1.4380 C   0  0  0  0  0  0  0  0  0  0  0  0
   -2.2570   15.6970   -0.5700 C   0  0  0  0  0  0  0  0  0  0  0  0
   -4.0520   15.7660    0.8640 N   0  0  0  0  0  0  0  0  0  0  0  0
   -0.1290   15.0680    0.2990 C   0  0  0  0  0  0  0  0  0  0  0  0
   -1.2850   13.9730   -2.3000 C   0  0  0  0  0  0  0  0  0  0  0  0
   -3.6410   14.3660   -2.7920 C   0  0  0  0  0  0  0  0  0  0  0  0
    0.1710   13.8490   -2.6220 C   0  0  0  0  0  0  0  0  0  0  0  0
   -4.3910   16.1140   -0.4090 C   0  0  0  0  0  0  0  0  0  0  0  0
   -3.3910   16.0710   -1.3050 C   0  0  0  0  0  0  0  0  0  0  0  0
   -0.9540   15.5470   -0.7910 C   0  0  0  0  0  0  0  0  0  0  0  0
   -2.3040   14.2720   -3.2200 C   0  0  0  0  0  0  0  0  0  0  0  0
   -1.9930   14.4760   -4.5440 O   0  0  0  0  0  0  0  0  0  0  0  0
    1.0190   13.7520   -1.7470 O   0  0  0  0  0  0  0  0  0  0  0  0
    0.4860   13.8530   -3.9250 O   0  0  0  0  0  0  0  0  0  0  0  0
  2  1  1  6
  2  3  1  0
  2  4  1  0
  4  5  1  0
  4  6  1  0
  3  7  2  0
  3  8  1  0
  5  9  1  0
  5 10  2  0
  6 11  2  0
  7 12  1  0
  8 13  2  0
 12 14  1  0
 10 15  1  0
  9 16  1  0
 15 16  2  0
  9 17  2  0
 11 17  1  0
 12 18  2  0
 13 18  1  0
 18 19  1  0
 14 20  2  0
 14 21  1  0
M  END
