mac-x0360-diamond-x0933_0_A
     RDKit          3D

 19 21  0  0  0  0  0  0  0  0999 V2000
   -7.4610   11.6150    1.3380 Cl  0  0  0  0  0  0  0  0  0  0  0  0
   -6.3280   11.4810    0.0380 C   0  0  0  0  0  0  0  0  0  0  0  0
   -6.3650   10.3710   -0.7830 C   0  0  0  0  0  0  0  0  0  0  0  0
   -5.3770   12.4680   -0.1940 C   0  0  0  0  0  0  0  0  0  0  0  0
   -4.4630   12.3260   -1.2630 C   0  0  0  0  0  0  0  0  0  0  0  0
   -5.4420   10.2620   -1.8270 C   0  0  0  0  0  0  0  0  0  0  0  0
   -5.4630    8.8930   -2.8460 Cl  0  0  0  0  0  0  0  0  0  0  0  0
   -3.2870   13.5390   -1.5610 S   0  0  2  0  0  0  0  0  0  0  0  0
   -4.4920   11.2340   -2.0720 C   0  0  0  0  0  0  0  0  0  0  0  0
   -1.6760   13.1250   -1.7980 N   0  0  0  0  0  0  0  0  0  0  0  0
   -3.5970   14.2240   -0.0460 C   0  0  2  0  0  0  0  0  0  0  0  0
   -3.7890   14.9270   -2.4690 C   0  0  0  0  0  0  0  0  0  0  0  0
   -4.4830   15.7490   -1.7810 N   0  0  0  0  0  0  0  0  0  0  0  0
   -4.6510   15.2150   -0.4200 C   0  0  2  0  0  0  0  0  0  0  0  0
   -2.5900   14.8370    0.8570 C   0  0  0  0  0  0  0  0  0  0  0  0
   -4.6500   16.1810    0.5940 N   0  0  0  0  0  0  0  0  0  0  0  0
   -3.3830   14.8150    2.0580 N   0  0  0  0  0  0  0  0  0  0  0  0
   -4.5880   15.5780    1.8870 C   0  0  2  0  0  0  0  0  0  0  0  0
   -5.6580   14.6350    1.9060 N   0  0  0  0  0  0  0  0  0  0  0  0
  1  2  1  0
  2  3  2  0
  2  4  1  0
  4  5  2  0
  3  6  1  0
  6  7  1  0
  5  8  1  0
  5  9  1  0
  6  9  2  0
  8 10  1  1
  8 11  1  0
  8 12  1  0
 12 13  2  0
 11 14  1  0
 14 13  1  6
 11 15  1  6
 14 16  1  0
 15 17  1  0
 16 18  1  0
 17 18  1  0
 18 19  1  6
M  END
