mac-x0439-mac-x0380
     RDKit          3D

 26 29  0  0  0  0  0  0  0  0999 V2000
   -2.8830   16.1020   -4.1050 N   0  0  0  0  0  0  0  0  0  0  0  0
   -2.6200   15.1650   -3.0030 C   0  0  2  0  0  0  0  0  0  0  0  0
   -2.6390   13.9310   -3.6190 O   0  0  0  0  0  0  0  0  0  0  0  0
   -1.7960   16.6860   -4.7620 C   0  0  0  0  0  0  0  0  0  0  0  0
   -0.5980   15.7740   -4.9030 C   0  0  2  0  0  0  0  0  0  0  0  0
   -1.6630   17.9460   -5.2690 C   0  0  0  0  0  0  0  0  0  0  0  0
   -3.5170   15.1150   -1.7620 C   0  0  0  0  0  0  0  0  0  0  0  0
   -0.2190   14.7580   -3.8870 C   0  0  0  0  0  0  0  0  0  0  0  0
    0.6790   16.5870   -4.8290 C   0  0  0  0  0  0  0  0  0  0  0  0
   -0.4260   18.4150   -5.8870 C   0  0  0  0  0  0  0  0  0  0  0  0
   -4.9170   15.1660   -1.8200 C   0  0  0  0  0  0  0  0  0  0  0  0
   -2.9210   15.0020   -0.4790 C   0  0  0  0  0  0  0  0  0  0  0  0
    1.0150   15.0000   -3.4650 C   0  0  0  0  0  0  0  0  0  0  0  0
    1.5900   16.1210   -4.0200 N   0  0  0  0  0  0  0  0  0  0  0  0
    0.7560   17.7900   -5.6900 C   0  0  0  0  0  0  0  0  0  0  0  0
   -5.6950   15.1030   -0.6470 C   0  0  0  0  0  0  0  0  0  0  0  0
   -3.6860   14.9420    0.6890 C   0  0  0  0  0  0  0  0  0  0  0  0
    1.7070   14.1130   -2.4860 C   0  0  0  0  0  0  0  0  0  0  0  0
   -5.0760   14.9910    0.6140 C   0  0  0  0  0  0  0  0  0  0  0  0
   -7.4670   15.1590   -0.7940 S   0  0  0  0  0  0  0  0  0  0  0  0
    3.0480   14.3190   -2.4990 O   0  0  0  0  0  0  0  0  0  0  0  0
    1.1530   13.2950   -1.7830 O   0  0  0  0  0  0  0  0  0  0  0  0
   -5.8190   14.9180    1.8130 N   0  0  0  0  0  0  0  0  0  0  0  0
   -7.8440   14.1290    0.6370 C   0  0  0  0  0  0  0  0  0  0  0  0
   -7.1590   14.6270    1.8880 C   0  0  0  0  0  0  0  0  0  0  0  0
   -7.7820   14.7790    2.9460 O   0  0  0  0  0  0  0  0  0  0  0  0
  1  2  1  0
  2  3  1  6
  1  4  1  0
  4  5  1  0
  4  6  2  0
  2  7  1  0
  5  8  1  1
  5  9  1  0
  6 10  1  0
  7 11  2  0
  7 12  1  0
  8 13  2  0
  9 14  2  0
 13 14  1  0
  9 15  1  0
 10 15  2  0
 11 16  1  0
 12 17  2  0
 13 18  1  0
 16 19  2  0
 17 19  1  0
 16 20  1  0
 18 21  1  0
 18 22  2  0
 19 23  1  0
 20 24  1  0
 23 25  1  0
 24 25  1  0
 25 26  2  0
M  END
