mac-x0347-mac-x0213
     RDKit          3D

 25 28  0  0  0  0  0  0  0  0999 V2000
    1.8290   13.8130   -2.2770 O   0  0  0  0  0  0  0  0  0  0  0  0
    0.5420   13.9410   -2.7130 S   0  0  0  0  0  0  0  0  0  0  0  0
    0.6680   15.2040   -1.3470 O   0  0  0  0  0  0  0  0  0  0  0  0
    0.1850   12.5780   -2.4640 O   0  0  0  0  0  0  0  0  0  0  0  0
   -1.0960   14.3910   -2.7660 C   0  0  0  0  0  0  0  0  0  0  0  0
    0.9800   14.6610   -4.1840 C   0  0  1  0  0  0  0  0  0  0  0  0
   -1.8730   14.4190   -1.6120 C   0  0  0  0  0  0  0  0  0  0  0  0
   -1.8360   14.7520   -3.8660 C   0  0  0  0  0  0  0  0  0  0  0  0
    0.4870   13.7030   -5.2180 C   0  0  0  0  0  0  0  0  0  0  0  0
    0.1420   15.8800   -4.5820 C   0  0  0  0  0  0  0  0  0  0  0  0
   -3.2060   14.7590   -1.6660 C   0  0  0  0  0  0  0  0  0  0  0  0
   -3.1140   15.0900   -3.9340 N   0  0  0  0  0  0  0  0  0  0  0  0
   -1.0210   13.9510   -5.0600 C   0  0  0  0  0  0  0  0  0  0  0  0
   -1.0470   15.4470   -5.0830 C   0  0  0  0  0  0  0  0  0  0  0  0
    0.3880   17.2390   -4.5260 C   0  0  0  0  0  0  0  0  0  0  0  0
   -3.7920   15.0900   -2.8310 C   0  0  0  0  0  0  0  0  0  0  0  0
   -4.0480   14.7610   -0.4730 C   0  0  0  0  0  0  0  0  0  0  0  0
   -1.9980   16.3720   -5.5080 C   0  0  0  0  0  0  0  0  0  0  0  0
   -0.5680   18.1430   -4.9670 C   0  0  0  0  0  0  0  0  0  0  0  0
   -3.6600   15.3210    0.7130 C   0  0  0  0  0  0  0  0  0  0  0  0
   -5.2820   14.1710   -0.5580 C   0  0  0  0  0  0  0  0  0  0  0  0
   -1.7770   17.7200   -5.4600 C   0  0  0  0  0  0  0  0  0  0  0  0
   -4.5240   15.2870    1.8090 C   0  0  0  0  0  0  0  0  0  0  0  0
   -6.1380   14.1330    0.5210 C   0  0  0  0  0  0  0  0  0  0  0  0
   -5.7690   14.6910    1.7120 C   0  0  0  0  0  0  0  0  0  0  0  0
  1  2  1  0
  2  3  2  0
  2  4  1  0
  2  5  1  0
  6  2  1  1
  5  7  2  0
  5  8  1  0
  6  9  1  0
  6 10  1  0
  7 11  1  0
  8 12  2  0
  9 13  1  0
 10 14  2  0
 13 14  1  0
 10 15  1  0
 11 16  2  0
 12 16  1  0
 11 17  1  0
 14 18  1  0
 15 19  2  0
 17 20  2  0
 17 21  1  0
 18 22  2  0
 19 22  1  0
 20 23  1  0
 21 24  2  0
 23 25  2  0
 24 25  1  0
M  END
