mac-x0321-mac-x0139
     RDKit          3D

 20 22  0  0  0  0  0  0  0  0999 V2000
   -4.4190   12.9750    1.4790 Cl  0  0  0  0  0  0  0  0  0  0  0  0
   -4.2800   14.3630    0.4150 C   0  0  1  0  0  0  0  0  0  0  0  0
   -2.9060   14.5880   -0.3540 C   0  0  2  0  0  0  0  0  0  0  0  0
   -5.5960   14.5640   -0.3300 C   0  0  0  0  0  0  0  0  0  0  0  0
   -3.3380   14.7610   -1.8450 C   0  0  2  0  0  0  0  0  0  0  0  0
   -5.6760   15.1780   -1.5080 C   0  0  0  0  0  0  0  0  0  0  0  0
   -1.7200   13.6420   -0.7020 C   0  0  1  0  0  0  0  0  0  0  0  0
   -2.1300   15.4710    0.5980 C   0  0  0  0  0  0  0  0  0  0  0  0
   -1.1560   14.3200   -1.8960 N   0  0  0  0  0  0  0  0  0  0  0  0
   -2.1280   14.8390   -2.6840 C   0  0  0  0  0  0  0  0  0  0  0  0
   -4.4480   15.6710   -2.1140 C   0  0  0  0  0  0  0  0  0  0  0  0
   -1.7450   14.7240    1.7390 N   0  0  0  0  0  0  0  0  0  0  0  0
   -0.5090   13.6070    0.1210 N   0  0  0  0  0  0  0  0  0  0  0  0
   -2.0310   15.2560   -3.8280 O   0  0  0  0  0  0  0  0  0  0  0  0
    0.2310   14.5880   -2.2540 C   0  0  0  0  0  0  0  0  0  0  0  0
   -0.4580   14.1980    1.4350 C   0  0  0  0  0  0  0  0  0  0  0  0
    0.7050   13.8560   -3.4930 C   0  0  0  0  0  0  0  0  0  0  0  0
    1.1210   12.4920   -3.0790 C   0  0  0  0  0  0  0  0  0  0  0  0
    1.8050   12.2400   -2.1280 O   0  0  0  0  0  0  0  0  0  0  0  0
    0.6430   11.5150   -3.8650 O   0  0  0  0  0  0  0  0  0  0  0  0
  2  1  1  6
  2  3  1  0
  2  4  1  0
  3  5  1  0
  4  6  2  0
  3  7  1  0
  3  8  1  1
  7  9  1  0
  5 10  1  0
  9 10  1  0
  5 11  1  1
  6 11  1  0
  8 12  1  0
  7 13  1  1
 10 14  2  0
  9 15  1  0
 12 16  1  0
 13 16  1  0
 15 17  1  0
 17 18  1  0
 18 19  2  0
 18 20  1  0
M  END
