mac-x0190-diamond-x0371_0_A
     RDKit          3D

 18 20  0  0  0  0  0  0  0  0999 V2000
   -8.9240   14.3370    2.8770 O   0  0  0  0  0  0  0  0  0  0  0  0
   -8.9810   14.3080    1.4360 C   0  0  0  0  0  0  0  0  0  0  0  0
   -7.6140   14.5410    0.8870 C   0  0  0  0  0  0  0  0  0  0  0  0
   -9.1420   15.5390    3.4870 C   0  0  0  0  0  0  0  0  0  0  0  0
   -9.5660   16.5190    2.8880 O   0  0  0  0  0  0  0  0  0  0  0  0
   -8.8240   15.4890    4.9030 C   0  0  0  0  0  0  0  0  0  0  0  0
   -7.3870   14.8420   -0.4370 N   0  0  0  0  0  0  0  0  0  0  0  0
   -6.4810   14.5030    1.5500 N   0  0  0  0  0  0  0  0  0  0  0  0
   -8.1860   14.3880    5.4080 O   0  0  0  0  0  0  0  0  0  0  0  0
   -9.0460   16.3860    5.9380 C   0  0  0  0  0  0  0  0  0  0  0  0
   -6.0350   15.0060   -0.6150 C   0  0  0  0  0  0  0  0  0  0  0  0
   -5.4940   14.7880    0.6440 C   0  0  0  0  0  0  0  0  0  0  0  0
   -8.5200   15.7980    7.1170 C   0  0  0  0  0  0  0  0  0  0  0  0
   -8.0050   14.5840    6.7410 C   0  0  0  0  0  0  0  0  0  0  0  0
   -5.2680   15.3180   -1.7310 C   0  0  0  0  0  0  0  0  0  0  0  0
   -4.1070   14.8800    0.8260 C   0  0  0  0  0  0  0  0  0  0  0  0
   -3.8860   15.4030   -1.5360 C   0  0  0  0  0  0  0  0  0  0  0  0
   -3.3150   15.1860   -0.2780 C   0  0  0  0  0  0  0  0  0  0  0  0
  1  2  1  0
  2  3  1  0
  1  4  1  0
  4  5  2  0
  4  6  1  0
  3  7  1  0
  3  8  2  0
  6  9  1  0
  6 10  2  0
  7 11  1  0
  8 12  1  0
 11 12  2  0
 10 13  1  0
  9 14  1  0
 13 14  2  0
 11 15  1  0
 12 16  1  0
 15 17  2  0
 16 18  2  0
 17 18  1  0
M  END
