mac-x0398-mac-x0180
     RDKit          3D

 15 16  0  0  0  0  0  0  0  0999 V2000
   -6.5970   14.7430    0.7310 N   0  0  0  0  0  0  0  0  0  0  0  0
   -7.1930   14.8370   -0.4730 C   0  0  0  0  0  0  0  0  0  0  0  0
   -8.6640   14.8270   -0.5230 C   0  0  0  0  0  0  0  0  0  0  0  0
   -5.2640   14.7800    0.5400 C   0  0  0  0  0  0  0  0  0  0  0  0
   -6.3050   14.9280   -1.4660 N   0  0  0  0  0  0  0  0  0  0  0  0
   -4.2670   14.7210    1.4810 C   0  0  0  0  0  0  0  0  0  0  0  0
   -5.0690   14.8930   -0.8380 C   0  0  0  0  0  0  0  0  0  0  0  0
   -3.7270   14.9440   -1.2970 C   0  0  0  0  0  0  0  0  0  0  0  0
   -2.9760   14.7710    1.0290 C   0  0  0  0  0  0  0  0  0  0  0  0
   -3.3140   15.0560   -2.7200 C   0  0  0  0  0  0  0  0  0  0  0  0
   -2.7080   14.8790   -0.3300 C   0  0  0  0  0  0  0  0  0  0  0  0
   -4.1440   15.2130   -3.6110 O   0  0  0  0  0  0  0  0  0  0  0  0
   -1.8340   14.9740   -3.1420 C   0  0  0  0  0  0  0  0  0  0  0  0
   -1.4560   15.0890   -4.2890 O   0  0  0  0  0  0  0  0  0  0  0  0
   -0.9590   14.7760   -2.1380 O   0  0  0  0  0  0  0  0  0  0  0  0
  1  2  1  0
  2  3  1  0
  1  4  1  0
  2  5  2  0
  4  6  2  0
  4  7  1  0
  5  7  1  0
  7  8  2  0
  6  9  1  0
  8 10  1  0
  8 11  1  0
  9 11  2  0
 10 12  2  0
 10 13  1  0
 13 14  2  0
 13 15  1  0
M  END
