mac-x0415-diamond-x0592_0_A
     RDKit          3D

 27 29  0  0  0  0  0  0  0  0999 V2000
    0.3070   11.2270   -2.7100 O   0  0  0  0  0  0  0  0  0  0  0  0
    0.5230   12.5160   -3.0260 C   0  0  0  0  0  0  0  0  0  0  0  0
    0.2830   13.4280   -2.1560 N   0  0  0  0  0  0  0  0  0  0  0  0
    1.0130   12.8080   -4.4170 C   0  0  0  0  0  0  0  0  0  0  0  0
   -0.2340   13.2700   -0.8050 C   0  0  0  0  0  0  0  0  0  0  0  0
    0.7640   14.2590   -4.4870 C   0  0  0  0  0  0  0  0  0  0  0  0
   -0.9080   14.5780   -0.3860 C   0  0  0  0  0  0  0  0  0  0  0  0
    1.7710   15.3040   -4.3450 C   0  0  0  0  0  0  0  0  0  0  0  0
   -0.3210   15.0090   -4.6770 C   0  0  0  0  0  0  0  0  0  0  0  0
   -2.3330   14.6200   -0.7580 N   0  0  0  0  0  0  0  0  0  0  0  0
    1.3990   16.5460   -4.4060 N   0  0  0  0  0  0  0  0  0  0  0  0
   -0.0230   16.4470   -4.5290 C   0  0  1  0  0  0  0  0  0  0  0  0
   -1.6830   14.6610   -4.9400 C   0  0  0  0  0  0  0  0  0  0  0  0
   -3.1580   14.7100    0.2220 C   0  0  0  0  0  0  0  0  0  0  0  0
   -0.7990   17.3730   -5.3940 C   0  0  0  0  0  0  0  0  0  0  0  0
   -2.4850   15.5940   -5.5070 C   0  0  0  0  0  0  0  0  0  0  0  0
   -4.2470   15.1620   -5.9230 Br  0  0  0  0  0  0  0  0  0  0  0  0
   -2.8540   14.7540    1.5590 N   0  0  0  0  0  0  0  0  0  0  0  0
   -1.9950   16.9460   -5.8400 C   0  0  0  0  0  0  0  0  0  0  0  0
   -4.5910   14.7770   -0.0470 C   0  0  0  0  0  0  0  0  0  0  0  0
   -5.2900   15.1250   -1.2390 C   0  0  0  0  0  0  0  0  0  0  0  0
   -5.6060   14.5060    0.8400 C   0  0  0  0  0  0  0  0  0  0  0  0
   -6.6270   15.0710   -1.0950 N   0  0  0  0  0  0  0  0  0  0  0  0
   -6.7820   14.6910    0.1880 N   0  0  0  0  0  0  0  0  0  0  0  0
   -8.0970   14.5120    0.7760 C   0  0  0  0  0  0  0  0  0  0  0  0
   -7.9760   14.0920    2.2440 C   0  0  0  0  0  0  0  0  0  0  0  0
   -7.2250   15.0380    3.0070 O   0  0  0  0  0  0  0  0  0  0  0  0
  1  2  1  0
  2  3  2  3
  2  4  1  0
  3  5  1  0
  4  6  1  0
  5  7  1  0
  6  8  1  0
  6  9  2  0
  7 10  1  0
  8 11  2  0
  9 12  1  0
 11 12  1  0
  9 13  1  0
 10 14  2  3
 12 15  1  6
 13 16  2  0
 16 17  1  0
 14 18  1  0
 15 19  2  0
 16 19  1  0
 14 20  1  0
 20 21  1  0
 20 22  2  0
 21 23  2  0
 22 24  1  0
 23 24  1  0
 24 25  1  0
 25 26  1  0
 26 27  1  0
M  END
