mac-x0159-diamond-x0926_0_A
     RDKit          3D

 18 20  0  0  0  0  0  0  0  0999 V2000
   -4.3360   14.9280    1.2310 N   0  0  0  0  0  0  0  0  0  0  0  0
   -3.5710   15.4260    0.0860 C   0  0  1  0  0  0  0  0  0  0  0  0
   -2.0450   15.3590    0.2360 C   0  0  2  0  0  0  0  0  0  0  0  0
   -4.0550   14.7620   -1.1660 N   0  0  1  0  0  0  0  0  0  0  0  0
   -5.4140   14.9440   -1.3230 O   0  0  0  0  0  0  0  0  0  0  0  0
   -3.2160   15.1190   -2.3820 C   0  0  0  0  0  0  0  0  0  0  0  0
   -1.4470   14.5930   -0.9060 C   0  0  1  0  0  0  0  0  0  0  0  0
   -1.4260   14.6830    1.3980 N   0  0  0  0  0  0  0  0  0  0  0  0
   -1.7670   15.2480   -2.1560 N   0  0  0  0  0  0  0  0  0  0  0  0
   -0.0530   14.7320   -0.5450 N   0  0  0  0  0  0  0  0  0  0  0  0
   -0.0520   14.5310    0.8990 C   0  0  0  0  0  0  0  0  0  0  0  0
   -0.9690   14.7840   -3.3190 C   0  0  0  0  0  0  0  0  0  0  0  0
   -0.4710   15.9760   -4.1100 C   0  0  0  0  0  0  0  0  0  0  0  0
    0.8350   16.4270   -4.2090 C   0  0  0  0  0  0  0  0  0  0  0  0
   -1.3930   16.7340   -4.8350 N   0  0  0  0  0  0  0  0  0  0  0  0
   -0.7840   17.7180   -5.4520 C   0  0  0  0  0  0  0  0  0  0  0  0
    0.9020   17.8110   -5.2150 S   0  0  0  0  0  0  0  0  0  0  0  0
   -1.4600   18.7200   -6.3170 C   0  0  0  0  0  0  0  0  0  0  0  0
  2  1  1  1
  2  3  1  0
  2  4  1  0
  4  5  1  6
  4  6  1  0
  3  7  1  0
  3  8  1  1
  6  9  1  0
  7  9  1  0
  7 10  1  1
  8 11  1  0
 10 11  1  0
  9 12  1  0
 12 13  1  0
 13 14  2  0
 13 15  1  0
 15 16  2  0
 14 17  1  0
 16 17  1  0
 16 18  1  0
M  CHG  2   4   1   5  -1
M  END
