mac-x0472-mac-x0417
     RDKit          3D

 30 33  0  0  0  0  0  0  0  0999 V2000
   -4.5520   15.4330   -2.4560 O   0  0  0  0  0  0  0  0  0  0  0  0
   -3.5110   14.4530   -2.6450 S   0  0  1  0  0  0  0  0  0  0  0  0
   -2.6020   14.3680   -3.8750 N   0  0  0  0  0  0  0  0  0  0  0  0
   -2.3880   14.7490   -1.4570 N   0  0  0  0  0  0  0  0  0  0  0  0
   -4.1940   12.8370   -2.3630 C   0  0  0  0  0  0  0  0  0  0  0  0
   -1.1810   14.0750   -3.6150 C   0  0  0  0  0  0  0  0  0  0  0  0
   -2.7950   14.8410   -0.1860 C   0  0  0  0  0  0  0  0  0  0  0  0
   -3.4650   11.7060   -2.7480 C   0  0  0  0  0  0  0  0  0  0  0  0
   -5.4500   12.7100   -1.7630 C   0  0  0  0  0  0  0  0  0  0  0  0
   -0.4500   13.8580   -4.9350 C   0  0  0  0  0  0  0  0  0  0  0  0
   -2.0650   14.4210    0.8270 N   0  0  0  0  0  0  0  0  0  0  0  0
   -4.3160   15.5100    0.2970 S   0  0  0  0  0  0  0  0  0  0  0  0
   -4.0090   10.4410   -2.5330 C   0  0  0  0  0  0  0  0  0  0  0  0
   -5.9840   11.4400   -1.5510 C   0  0  0  0  0  0  0  0  0  0  0  0
    0.6170   12.7430   -4.8970 C   0  0  1  0  0  0  0  0  0  0  0  0
   -3.8690   15.1640    1.8990 C   0  0  0  0  0  0  0  0  0  0  0  0
   -2.6870   14.6060    2.0310 N   0  0  0  0  0  0  0  0  0  0  0  0
   -5.2660   10.3100   -1.9380 C   0  0  0  0  0  0  0  0  0  0  0  0
    0.7510   12.1080   -3.5190 C   0  0  0  0  0  0  0  0  0  0  0  0
    0.4000   11.6990   -5.9460 C   0  0  0  0  0  0  0  0  0  0  0  0
    1.2330   12.9520   -2.5840 O   0  0  0  0  0  0  0  0  0  0  0  0
    0.4860   10.9590   -3.2030 O   0  0  0  0  0  0  0  0  0  0  0  0
    1.3310   11.5230   -6.8850 N   0  0  0  0  0  0  0  0  0  0  0  0
   -0.6870   10.7950   -6.1280 C   0  0  0  0  0  0  0  0  0  0  0  0
    0.8700   10.5150   -7.7090 O   0  0  0  0  0  0  0  0  0  0  0  0
   -0.3290   10.0770   -7.2580 C   0  0  0  0  0  0  0  0  0  0  0  0
   -1.9060   10.4850   -5.5020 C   0  0  0  0  0  0  0  0  0  0  0  0
   -1.0910    9.0630   -7.8300 C   0  0  0  0  0  0  0  0  0  0  0  0
   -2.7000    9.4640   -6.0510 C   0  0  0  0  0  0  0  0  0  0  0  0
   -2.3020    8.7670   -7.1920 C   0  0  0  0  0  0  0  0  0  0  0  0
  1  2  2  0
  2  3  2  0
  2  4  1  1
  2  5  1  0
  3  6  1  0
  4  7  1  0
  5  8  2  0
  5  9  1  0
  6 10  1  0
  7 11  2  0
  7 12  1  0
  8 13  1  0
  9 14  2  0
 15 10  1  1
 12 16  1  0
 11 17  1  0
 16 17  2  0
 13 18  2  0
 14 18  1  0
 15 19  1  0
 15 20  1  0
 19 21  1  0
 19 22  2  0
 20 23  2  0
 20 24  1  0
 23 25  1  0
 24 26  2  0
 25 26  1  0
 24 27  1  0
 26 28  1  0
 27 29  2  0
 28 30  2  0
 29 30  1  0
M  END
