mac-x0510-mac-x0328
     RDKit          3D

 13 14  0  0  0  0  0  0  0  0999 V2000
   -5.9280   15.0920    0.3700 O   0  0  0  0  0  0  0  0  0  0  0  0
   -4.7210   15.0180    0.1750 C   0  0  0  0  0  0  0  0  0  0  0  0
   -4.2690   15.0400   -1.1550 N   0  0  0  0  0  0  0  0  0  0  0  0
   -3.8970   14.8870    1.2770 N   0  0  0  0  0  0  0  0  0  0  0  0
   -2.6520   14.7740    1.0510 C   0  0  0  0  0  0  0  0  0  0  0  0
   -2.9850   14.9220   -1.3870 C   0  0  0  0  0  0  0  0  0  0  0  0
   -2.3850   14.8970   -2.7650 C   0  0  0  0  0  0  0  0  0  0  0  0
   -2.1030   14.7970   -0.2710 C   0  0  0  0  0  0  0  0  0  0  0  0
   -1.6370   14.6260    1.9300 N   0  0  0  0  0  0  0  0  0  0  0  0
   -3.2460   15.0660   -3.7640 O   0  0  0  0  0  0  0  0  0  0  0  0
   -1.1890   14.7230   -2.8850 O   0  0  0  0  0  0  0  0  0  0  0  0
   -0.8210   14.7080   -0.2020 N   0  0  0  0  0  0  0  0  0  0  0  0
   -0.5920   14.6110    1.1610 C   0  0  0  0  0  0  0  0  0  0  0  0
  1  2  2  0
  2  3  1  0
  2  4  1  0
  4  5  2  0
  3  6  2  0
  6  7  1  0
  5  8  1  0
  6  8  1  0
  5  9  1  0
  7 10  1  0
  7 11  2  0
  8 12  2  0
  9 13  2  0
 12 13  1  0
M  END
