mac-x0417-diamond-x0766_0_A
     RDKit          3D

 23 26  0  0  0  0  0  0  0  0999 V2000
    0.6240   12.4370   -1.9200 O   0  0  0  0  0  0  0  0  0  0  0  0
    0.7220   12.3260   -3.3320 C   0  0  0  0  0  0  0  0  0  0  0  0
    2.0810   12.0620   -3.5580 O   0  0  0  0  0  0  0  0  0  0  0  0
   -0.0900   11.1850   -3.8460 C   0  0  0  0  0  0  0  0  0  0  0  0
    0.2300   13.5940   -4.0070 C   0  0  2  0  0  0  0  0  0  0  0  0
   -0.0680   10.9800   -5.3230 C   0  0  0  0  0  0  0  0  0  0  0  0
    1.2630   14.1250   -5.0160 C   0  0  0  0  0  0  0  0  0  0  0  0
    0.0120   14.7360   -3.0110 C   0  0  1  0  0  0  0  0  0  0  0  0
    0.8360   11.5020   -6.1800 N   0  0  0  0  0  0  0  0  0  0  0  0
   -0.9940   10.1900   -5.9740 C   0  0  0  0  0  0  0  0  0  0  0  0
    1.5160   15.5670   -4.6130 C   0  0  0  0  0  0  0  0  0  0  0  0
    0.2780   15.9730   -3.8530 C   0  0  0  0  0  0  0  0  0  0  0  0
   -1.2920   14.7410   -2.2530 C   0  0  0  0  0  0  0  0  0  0  0  0
    0.4790   11.0020   -7.4300 O   0  0  0  0  0  0  0  0  0  0  0  0
   -0.6210   10.2150   -7.2940 C   0  0  0  0  0  0  0  0  0  0  0  0
   -2.1050    9.4520   -5.5730 C   0  0  0  0  0  0  0  0  0  0  0  0
   -2.5700   14.8410   -2.7900 C   0  0  0  0  0  0  0  0  0  0  0  0
   -1.3640   14.6420   -0.8210 C   0  0  0  0  0  0  0  0  0  0  0  0
   -1.2970    9.5240   -8.2900 C   0  0  0  0  0  0  0  0  0  0  0  0
   -2.8140    8.7500   -6.5390 C   0  0  0  0  0  0  0  0  0  0  0  0
   -2.6510   14.6740   -0.3420 C   0  0  0  0  0  0  0  0  0  0  0  0
   -3.7960   14.8230   -1.5970 S   0  0  0  0  0  0  0  0  0  0  0  0
   -2.4140    8.7850   -7.8740 C   0  0  0  0  0  0  0  0  0  0  0  0
  2  1  1  0
  2  3  1  0
  2  4  1  0
  5  2  1  1
  4  6  1  0
  5  7  1  0
  5  8  1  0
  6  9  2  0
  6 10  1  0
  7 11  1  0
  8 12  1  0
 11 12  1  0
  8 13  1  6
  9 14  1  0
 10 15  2  0
 14 15  1  0
 10 16  1  0
 13 17  2  0
 13 18  1  0
 15 19  1  0
 16 20  2  0
 18 21  2  0
 17 22  1  0
 21 22  1  0
 19 23  2  0
 20 23  1  0
M  END
