mac-x0148-mac-x0354
     RDKit          3D

 33 38  0  0  0  0  0  0  0  0999 V2000
    0.6150   11.0320   -8.5290 C   0  0  0  0  0  0  0  0  0  0  0  0
    0.9260   11.4310   -7.1780 N   0  0  0  0  0  0  0  0  0  0  0  0
    1.9100   12.2980   -6.9550 N   0  0  0  0  0  0  0  0  0  0  0  0
    0.3290   11.0310   -6.0380 C   0  0  0  0  0  0  0  0  0  0  0  0
    1.9700   12.4750   -5.6810 C   0  0  0  0  0  0  0  0  0  0  0  0
    1.0120   11.7100   -5.0320 C   0  0  0  0  0  0  0  0  0  0  0  0
   -0.7710   10.0880   -6.0380 C   0  0  0  0  0  0  0  0  0  0  0  0
    0.8940   11.7550   -3.5830 C   0  0  0  0  0  0  0  0  0  0  0  0
   -0.5520    8.7880   -6.5030 C   0  0  0  0  0  0  0  0  0  0  0  0
   -2.0350   10.4540   -5.5850 C   0  0  0  0  0  0  0  0  0  0  0  0
    2.0560   12.0630   -2.8480 O   0  0  0  0  0  0  0  0  0  0  0  0
    0.2330   10.6230   -3.0060 O   0  0  0  0  0  0  0  0  0  0  0  0
    0.0880   12.9580   -3.6490 C   0  0  1  0  0  0  0  0  0  0  0  0
   -1.5940    7.8660   -6.5120 C   0  0  0  0  0  0  0  0  0  0  0  0
   -3.0770    9.5330   -5.5920 C   0  0  0  0  0  0  0  0  0  0  0  0
   -0.9450   12.8050   -4.7450 C   0  0  0  0  0  0  0  0  0  0  0  0
   -0.5100   13.2510   -2.3620 C   0  0  0  0  0  0  0  0  0  0  0  0
   -2.8530    8.2390   -6.0560 C   0  0  0  0  0  0  0  0  0  0  0  0
   -1.6480   14.1080   -4.8290 C   0  0  1  0  0  0  0  0  0  0  0  0
   -1.1960   14.5130   -2.4060 N   0  0  0  0  0  0  0  0  0  0  0  0
   -2.9120   14.1210   -5.6440 C   0  0  0  0  0  0  0  0  0  0  0  0
   -2.2240   14.4820   -3.4870 C   0  0  1  0  0  0  0  0  0  0  0  0
   -1.4440   14.7150   -1.0840 C   0  0  0  0  0  0  0  0  0  0  0  0
   -3.5350   15.3470   -5.2320 O   0  0  0  0  0  0  0  0  0  0  0  0
   -2.9560   15.7190   -3.9510 C   0  0  0  0  0  0  0  0  0  0  0  0
   -0.3600   14.6530   -0.2220 N   0  0  0  0  0  0  0  0  0  0  0  0
   -2.6120   14.9420   -0.5210 C   0  0  0  0  0  0  0  0  0  0  0  0
   -0.4970   14.6920    1.1210 C   0  0  0  0  0  0  0  0  0  0  0  0
   -2.6810   15.0730    0.9460 C   0  0  0  0  0  0  0  0  0  0  0  0
   -3.9570   15.1160   -0.9420 C   0  0  0  0  0  0  0  0  0  0  0  0
   -1.5950   14.8850    1.7540 N   0  0  0  0  0  0  0  0  0  0  0  0
   -3.8770   15.3650    1.3450 N   0  0  0  0  0  0  0  0  0  0  0  0
   -4.6280   15.3760    0.1810 C   0  0  0  0  0  0  0  0  0  0  0  0
  1  2  1  0
  2  3  1  0
  2  4  1  0
  3  5  2  0
  4  6  2  0
  5  6  1  0
  4  7  1  0
  6  8  1  0
  7  9  2  0
  7 10  1  0
  8 11  1  0
  8 12  1  0
 13  8  1  1
  9 14  1  0
 10 15  2  0
 13 16  1  0
 13 17  1  0
 14 18  2  0
 15 18  1  0
 19 16  1  1
 17 20  1  0
 19 21  1  0
 19 22  1  0
 20 22  1  0
 20 23  1  0
 21 24  1  0
 22 25  1  6
 24 25  1  0
 23 26  1  0
 23 27  2  0
 26 28  1  0
 27 29  1  0
 27 30  1  0
 28 31  2  0
 29 31  1  0
 29 32  2  0
 30 33  2  0
 32 33  1  0
M  END
