mac-x0283-diamond-x0969_0_A
     RDKit          3D

 10 11  0  0  0  0  0  0  0  0999 V2000
   -6.8700   14.5930    2.4650 N   0  0  0  0  0  0  0  0  0  0  0  0
   -6.7130   14.7210    1.1350 C   0  0  0  0  0  0  0  0  0  0  0  0
   -7.7210   14.7180    0.2590 N   0  0  0  0  0  0  0  0  0  0  0  0
   -5.4560   14.8840    0.4870 C   0  0  0  0  0  0  0  0  0  0  0  0
   -7.1400   14.8850   -0.9870 O   0  0  0  0  0  0  0  0  0  0  0  0
   -5.7920   14.9850   -0.8530 C   0  0  0  0  0  0  0  0  0  0  0  0
   -4.1000   14.9600    0.8510 C   0  0  0  0  0  0  0  0  0  0  0  0
   -4.8770   15.1610   -1.8830 C   0  0  0  0  0  0  0  0  0  0  0  0
   -3.1510   15.1290   -0.1630 C   0  0  0  0  0  0  0  0  0  0  0  0
   -3.5350   15.2290   -1.5060 C   0  0  0  0  0  0  0  0  0  0  0  0
  1  2  1  0
  2  3  2  0
  2  4  1  0
  3  5  1  0
  4  6  2  0
  5  6  1  0
  4  7  1  0
  6  8  1  0
  7  9  2  0
  8 10  2  0
  9 10  1  0
M  END
