mac-x0381-mac-x0453
     RDKit          3D

 20 22  0  0  0  0  0  0  0  0999 V2000
   -7.4410   13.5180    2.8070 N   0  0  0  0  0  0  0  0  0  0  0  0
   -8.0060   14.6200    3.4770 C   0  0  0  0  0  0  0  0  0  0  0  0
   -7.4580   15.2520    4.4540 N   0  0  0  0  0  0  0  0  0  0  0  0
   -6.1850   13.4350    1.9740 C   0  0  0  0  0  0  0  0  0  0  0  0
   -5.7000   14.7720    1.3670 C   0  0  0  0  0  0  0  0  0  0  0  0
   -9.3590   15.1720    3.1300 C   0  0  0  0  0  0  0  0  0  0  0  0
   -9.5650   15.9390    1.9850 C   0  0  0  0  0  0  0  0  0  0  0  0
  -10.4420   14.9210    3.9850 C   0  0  0  0  0  0  0  0  0  0  0  0
   -4.6080   14.7330    0.3090 C   0  0  0  0  0  0  0  0  0  0  0  0
  -10.8270   16.4610    1.6830 C   0  0  0  0  0  0  0  0  0  0  0  0
  -11.7120   15.4310    3.6960 C   0  0  0  0  0  0  0  0  0  0  0  0
   -3.2670   14.4030    0.4000 C   0  0  0  0  0  0  0  0  0  0  0  0
   -4.9040   15.0770   -1.0020 N   0  0  0  0  0  0  0  0  0  0  0  0
  -11.9170   16.2060    2.5440 C   0  0  0  0  0  0  0  0  0  0  0  0
  -11.0210   17.2380    0.5330 C   0  0  0  0  0  0  0  0  0  0  0  0
   -2.7590   14.5500   -0.8710 N   0  0  0  0  0  0  0  0  0  0  0  0
   -3.7830   14.9570   -1.6780 C   0  0  0  0  0  0  0  0  0  0  0  0
  -13.1790   16.7330    2.2290 C   0  0  0  0  0  0  0  0  0  0  0  0
  -12.2800   17.7570    0.2350 C   0  0  0  0  0  0  0  0  0  0  0  0
  -13.3580   17.5050    1.0790 C   0  0  0  0  0  0  0  0  0  0  0  0
  1  2  1  0
  2  3  2  3
  1  4  1  0
  4  5  1  0
  2  6  1  0
  6  7  2  0
  6  8  1  0
  5  9  1  0
  7 10  1  0
  8 11  2  0
  9 12  2  0
  9 13  1  0
 10 14  2  0
 11 14  1  0
 10 15  1  0
 12 16  1  0
 13 17  2  0
 16 17  1  0
 14 18  1  0
 15 19  2  0
 18 20  2  0
 19 20  1  0
M  END
