mac-x0402-diamond-x0128_0_A
     RDKit          3D

 20 22  0  0  0  0  0  0  0  0999 V2000
   -1.7850   14.8440   -3.3260 Cl  0  0  0  0  0  0  0  0  0  0  0  0
   -3.1180   14.8910   -2.2370 C   0  0  0  0  0  0  0  0  0  0  0  0
   -4.3840   15.1380   -2.7440 C   0  0  0  0  0  0  0  0  0  0  0  0
   -2.9090   14.6780   -0.8730 C   0  0  0  0  0  0  0  0  0  0  0  0
   -4.0360   14.7150   -0.0370 C   0  0  0  0  0  0  0  0  0  0  0  0
   -5.4930   15.1750   -1.8970 C   0  0  0  0  0  0  0  0  0  0  0  0
   -5.3220   14.9560   -0.5230 C   0  0  0  0  0  0  0  0  0  0  0  0
   -4.1370   14.4900    1.6600 S   0  0  0  0  0  0  0  0  0  0  0  0
   -5.8280   14.7170    1.5940 C   0  0  0  0  0  0  0  0  0  0  0  0
   -6.3350   14.9520    0.4150 N   0  0  0  0  0  0  0  0  0  0  0  0
   -6.4930   14.6260    2.7890 N   0  0  0  0  0  0  0  0  0  0  0  0
   -7.6790   15.1700    3.1810 C   0  0  0  0  0  0  0  0  0  0  0  0
   -8.5390   15.4700    2.3470 O   0  0  0  0  0  0  0  0  0  0  0  0
   -7.7520   15.3100    4.5350 N   0  0  0  0  0  0  0  0  0  0  0  0
   -8.5590   16.1510    5.3200 C   0  0  0  0  0  0  0  0  0  0  0  0
   -9.2230   17.2900    4.8810 C   0  0  0  0  0  0  0  0  0  0  0  0
   -8.7060   15.8070    6.6640 C   0  0  0  0  0  0  0  0  0  0  0  0
   -9.9970   18.0710    5.6750 N   0  0  0  0  0  0  0  0  0  0  0  0
   -9.4930   16.5950    7.5020 C   0  0  0  0  0  0  0  0  0  0  0  0
  -10.1120   17.7080    6.9640 C   0  0  0  0  0  0  0  0  0  0  0  0
  1  2  1  0
  2  3  2  0
  2  4  1  0
  4  5  2  0
  3  6  1  0
  5  7  1  0
  6  7  2  0
  5  8  1  0
  8  9  1  0
  7 10  1  0
  9 10  2  0
  9 11  1  0
 11 12  1  0
 12 13  2  0
 12 14  1  0
 14 15  1  0
 15 16  2  0
 15 17  1  0
 16 18  1  0
 17 19  2  0
 18 20  2  0
 19 20  1  0
M  END
