mac-x0546-mac-x0124
     RDKit          3D

 26 29  0  0  0  0  0  0  0  0999 V2000
   -4.2110   15.3360   -5.9610 C   0  0  0  0  0  0  0  0  0  0  0  0
   -3.5300   16.5690   -5.7050 O   0  0  0  0  0  0  0  0  0  0  0  0
   -2.1760   16.3920   -5.6700 C   0  0  0  0  0  0  0  0  0  0  0  0
   -1.6410   15.1770   -5.4330 C   0  0  0  0  0  0  0  0  0  0  0  0
   -1.3250   17.5650   -5.9290 C   0  0  0  0  0  0  0  0  0  0  0  0
   -0.1470   15.0220   -5.4180 C   0  0  1  0  0  0  0  0  0  0  0  0
   -0.0340   17.5780   -5.5260 C   0  0  0  0  0  0  0  0  0  0  0  0
    0.2590   16.3390   -4.8240 C   0  0  0  0  0  0  0  0  0  0  0  0
    0.2440   14.1380   -4.3690 C   0  0  0  0  0  0  0  0  0  0  0  0
    0.0180   12.6580   -4.4300 C   0  0  0  0  0  0  0  0  0  0  0  0
    0.7840   16.2680   -3.6910 N   0  0  0  0  0  0  0  0  0  0  0  0
    0.6660   14.9320   -3.4290 C   0  0  0  0  0  0  0  0  0  0  0  0
    0.4310   11.8930   -3.1810 C   0  0  0  0  0  0  0  0  0  0  0  0
    0.8660   14.4820   -2.1100 C   0  0  0  0  0  0  0  0  0  0  0  0
    1.2900   12.2260   -2.3810 O   0  0  0  0  0  0  0  0  0  0  0  0
   -0.2740   10.7500   -3.0190 O   0  0  0  0  0  0  0  0  0  0  0  0
   -0.5480   14.6290   -1.7040 N   0  0  0  0  0  0  0  0  0  0  0  0
   -1.7210   14.7970   -2.4510 C   0  0  0  0  0  0  0  0  0  0  0  0
   -0.8610   14.6200   -0.4350 C   0  0  0  0  0  0  0  0  0  0  0  0
   -2.7840   14.9010   -1.5660 C   0  0  0  0  0  0  0  0  0  0  0  0
   -2.2240   14.7860   -0.2660 C   0  0  0  0  0  0  0  0  0  0  0  0
    0.0820   14.4670    0.4590 N   0  0  0  0  0  0  0  0  0  0  0  0
   -2.6480   14.8000    1.0530 C   0  0  0  0  0  0  0  0  0  0  0  0
   -0.4260   14.4750    1.6570 C   0  0  0  0  0  0  0  0  0  0  0  0
   -3.9540   14.9720    1.4620 N   0  0  0  0  0  0  0  0  0  0  0  0
   -1.7090   14.6320    2.0020 N   0  0  0  0  0  0  0  0  0  0  0  0
  1  2  1  0
  2  3  1  0
  3  4  2  0
  3  5  1  0
  6  4  1  1
  5  7  2  0
  6  8  1  0
  7  8  1  0
  6  9  1  0
  9 10  1  0
  8 11  2  0
  9 12  2  0
 11 12  1  0
 10 13  1  0
 12 14  1  0
 13 15  2  0
 13 16  1  0
 14 17  1  0
 17 18  1  0
 17 19  1  0
 18 20  2  0
 19 21  2  0
 20 21  1  0
 19 22  1  0
 21 23  1  0
 22 24  2  0
 23 25  1  0
 23 26  2  0
 24 26  1  0
M  END
