mac-x0394-mac-x0263
     RDKit          3D

 28 30  0  0  0  0  0  0  0  0999 V2000
    0.9720   18.2900   -5.0250 Cl  0  0  0  0  0  0  0  0  0  0  0  0
    0.2500   16.7480   -4.9580 C   0  0  0  0  0  0  0  0  0  0  0  0
   -1.1110   16.6500   -5.2170 C   0  0  0  0  0  0  0  0  0  0  0  0
    1.0190   15.6300   -4.6570 C   0  0  0  0  0  0  0  0  0  0  0  0
    0.4170   14.3710   -4.6120 C   0  0  0  0  0  0  0  0  0  0  0  0
   -1.7300   15.4020   -5.1790 C   0  0  0  0  0  0  0  0  0  0  0  0
   -3.2030   15.2570   -5.4580 C   0  0  0  0  0  0  0  0  0  0  0  0
    1.2210   13.1370   -4.2870 C   0  0  0  0  0  0  0  0  0  0  0  0
   -0.9580   14.2730   -4.8760 C   0  0  0  0  0  0  0  0  0  0  0  0
    0.8370   12.5110   -2.9630 C   0  0  0  0  0  0  0  0  0  0  0  0
   -3.9160   14.7470   -4.2150 C   0  0  0  0  0  0  0  0  0  0  0  0
    0.1910   11.3310   -3.1170 O   0  0  0  0  0  0  0  0  0  0  0  0
    1.0340   12.9430   -1.8430 O   0  0  0  0  0  0  0  0  0  0  0  0
   -3.2960   15.4250   -3.0030 C   0  0  0  0  0  0  0  0  0  0  0  0
   -4.0860   15.2380   -1.7400 C   0  0  0  0  0  0  0  0  0  0  0  0
   -5.4770   15.1150   -1.8300 C   0  0  0  0  0  0  0  0  0  0  0  0
   -3.4360   15.1760   -0.4960 C   0  0  0  0  0  0  0  0  0  0  0  0
   -6.1610   14.9140   -0.6420 C   0  0  0  0  0  0  0  0  0  0  0  0
   -4.1540   14.9810    0.6850 C   0  0  0  0  0  0  0  0  0  0  0  0
   -7.4920   14.7420   -0.3770 N   0  0  0  0  0  0  0  0  0  0  0  0
   -5.5440   14.8420    0.5960 C   0  0  0  0  0  0  0  0  0  0  0  0
   -7.6350   14.5710    0.9720 C   0  0  0  0  0  0  0  0  0  0  0  0
   -6.4730   14.6310    1.5810 N   0  0  0  0  0  0  0  0  0  0  0  0
   -8.9560   14.3530    1.6140 C   0  0  0  0  0  0  0  0  0  0  0  0
   -9.5280   15.6800    2.0860 C   0  0  0  0  0  0  0  0  0  0  0  0
  -10.8250   15.5040    2.8210 C   0  0  0  0  0  0  0  0  0  0  0  0
  -11.4890   14.3790    2.4800 O   0  0  0  0  0  0  0  0  0  0  0  0
  -11.2540   16.2880    3.6520 O   0  0  0  0  0  0  0  0  0  0  0  0
  1  2  1  0
  2  3  2  0
  2  4  1  0
  4  5  2  0
  3  6  1  0
  6  7  1  0
  5  8  1  0
  5  9  1  0
  6  9  2  0
  8 10  1  0
  7 11  1  0
 10 12  1  0
 10 13  2  0
 11 14  1  0
 14 15  1  0
 15 16  2  0
 15 17  1  0
 16 18  1  0
 17 19  2  0
 18 20  1  0
 18 21  2  0
 19 21  1  0
 20 22  1  0
 21 23  1  0
 22 23  2  0
 22 24  1  0
 24 25  1  0
 25 26  1  0
 26 27  1  0
 26 28  2  0
M  END
