mac-x0224-mac-x0116
     RDKit          3D

 22 24  0  0  0  0  0  0  0  0999 V2000
   -5.2300   14.9530    0.5990 C   0  0  0  0  0  0  0  0  0  0  0  0
   -3.6760   15.8250    0.9560 S   0  0  0  0  0  0  0  0  0  0  0  0
   -2.8790   15.7530   -0.7100 C   0  0  1  0  0  0  0  0  0  0  0  0
   -6.0040   14.5530    1.8360 C   0  0  0  0  0  0  0  0  0  0  0  0
   -6.4190   13.1410    1.7940 C   0  0  0  0  0  0  0  0  0  0  0  0
   -1.6770   14.7660   -0.7990 C   0  0  1  0  0  0  0  0  0  0  0  0
   -3.9290   15.5330   -1.7710 C   0  0  0  0  0  0  0  0  0  0  0  0
   -6.3540   12.5270    0.5780 O   0  0  0  0  0  0  0  0  0  0  0  0
   -6.8790   12.2750    2.7500 C   0  0  0  0  0  0  0  0  0  0  0  0
   -1.4350   14.1710   -2.2170 C   0  0  2  0  0  0  0  0  0  0  0  0
   -3.5680   15.1830   -3.0030 C   0  0  0  0  0  0  0  0  0  0  0  0
   -7.1170   11.0590    2.0880 C   0  0  0  0  0  0  0  0  0  0  0  0
   -6.7800   11.2590    0.7720 C   0  0  0  0  0  0  0  0  0  0  0  0
   -0.4430   15.4110   -0.2970 N   0  0  0  0  0  0  0  0  0  0  0  0
   -1.8970   13.6870    0.2430 C   0  0  0  0  0  0  0  0  0  0  0  0
    0.0520   14.0550   -2.4820 C   0  0  0  0  0  0  0  0  0  0  0  0
   -2.1180   15.0000   -3.3130 C   0  0  2  0  0  0  0  0  0  0  0  0
   -1.3330   14.2950    1.4430 N   0  0  0  0  0  0  0  0  0  0  0  0
   -0.0710   14.6500    0.8710 C   0  0  0  0  0  0  0  0  0  0  0  0
   -1.9680   14.3770   -4.5860 O   0  0  0  0  0  0  0  0  0  0  0  0
    0.9460   14.0050   -1.6580 O   0  0  0  0  0  0  0  0  0  0  0  0
    0.3520   14.0040   -3.7930 O   0  0  0  0  0  0  0  0  0  0  0  0
  1  2  1  0
  3  2  1  1
  1  4  1  0
  4  5  1  0
  3  6  1  0
  3  7  1  0
  5  8  1  0
  5  9  2  0
  6 10  1  0
  7 11  2  0
  9 12  1  0
  8 13  1  0
 12 13  2  0
  6 14  1  0
  6 15  1  1
 10 16  1  6
 10 17  1  0
 11 17  1  0
 15 18  1  0
 14 19  1  0
 18 19  1  0
 17 20  1  6
 16 21  2  0
 16 22  1  0
M  END
