mac-x0567-mac-x0179
     RDKit          3D

 27 30  0  0  0  0  0  0  0  0999 V2000
   -0.6300   14.4870   -1.9420 N   0  0  0  0  0  0  0  0  0  0  0  0
   -1.4960   14.6150   -0.9380 C   0  0  0  0  0  0  0  0  0  0  0  0
   -1.1360   14.3850    0.2850 N   0  0  0  0  0  0  0  0  0  0  0  0
   -2.7440   14.9420   -0.8990 C   0  0  0  0  0  0  0  0  0  0  0  0
    0.2130   13.9640    0.3090 C   0  0  0  0  0  0  0  0  0  0  0  0
   -2.0890   14.5680    1.2540 N   0  0  0  0  0  0  0  0  0  0  0  0
   -3.1560   14.9290    0.4750 C   0  0  0  0  0  0  0  0  0  0  0  0
   -3.4320   15.2260   -2.0440 C   0  0  0  0  0  0  0  0  0  0  0  0
    0.2780   13.0890   -1.0080 C   0  0  0  0  0  0  0  0  0  0  0  0
   -4.4850   15.2600    0.7510 C   0  0  0  0  0  0  0  0  0  0  0  0
   -4.7370   15.5380   -1.7420 C   0  0  0  0  0  0  0  0  0  0  0  0
    0.9700   13.5440   -2.1870 O   0  0  0  0  0  0  0  0  0  0  0  0
   -5.2420   15.5570   -0.4170 C   0  0  0  0  0  0  0  0  0  0  0  0
    0.8770   12.5380   -3.1350 C   0  0  0  0  0  0  0  0  0  0  0  0
    0.9720   11.3450   -2.8670 O   0  0  0  0  0  0  0  0  0  0  0  0
    0.6160   13.0940   -4.5330 C   0  0  0  0  0  0  0  0  0  0  0  0
    0.0970   12.0480   -5.4010 N   0  0  0  0  0  0  0  0  0  0  0  0
    0.7910   11.5430   -6.4550 C   0  0  0  0  0  0  0  0  0  0  0  0
   -1.0200   11.2960   -5.1410 C   0  0  0  0  0  0  0  0  0  0  0  0
    1.8700   11.8850   -6.8560 O   0  0  0  0  0  0  0  0  0  0  0  0
   -1.8010   11.3950   -4.2150 O   0  0  0  0  0  0  0  0  0  0  0  0
   -0.0110   10.4580   -7.0240 C   0  0  0  0  0  0  0  0  0  0  0  0
   -1.1220   10.3050   -6.2120 C   0  0  0  0  0  0  0  0  0  0  0  0
    0.1970    9.6700   -8.1380 C   0  0  0  0  0  0  0  0  0  0  0  0
   -2.0900    9.3500   -6.4720 C   0  0  0  0  0  0  0  0  0  0  0  0
   -0.7680    8.6950   -8.4230 C   0  0  0  0  0  0  0  0  0  0  0  0
   -1.9020    8.5370   -7.5940 C   0  0  0  0  0  0  0  0  0  0  0  0
  1  2  1  0
  2  3  1  0
  2  4  2  0
  3  5  1  0
  3  6  1  0
  4  7  1  0
  6  7  2  0
  4  8  1  0
  5  9  1  0
  7 10  1  0
  8 11  2  0
  9 12  1  0
 10 13  2  0
 11 13  1  0
 12 14  1  0
 14 15  2  0
 14 16  1  0
 16 17  1  0
 17 18  1  0
 17 19  1  0
 18 20  2  0
 19 21  2  0
 18 22  1  0
 19 23  1  0
 22 23  2  0
 22 24  1  0
 23 25  1  0
 24 26  2  0
 25 27  2  0
 26 27  1  0
M  END
