mac-x0204-mac-x0357
     RDKit          3D

 19 20  0  0  0  0  0  0  0  0999 V2000
    0.8010   13.4520   -2.3110 O   0  0  0  0  0  0  0  0  0  0  0  0
    0.1710   14.5970   -2.6530 C   0  0  0  0  0  0  0  0  0  0  0  0
    0.5040   15.6720   -2.2200 O   0  0  0  0  0  0  0  0  0  0  0  0
    0.0370   12.2820   -2.4060 C   0  0  0  0  0  0  0  0  0  0  0  0
   -0.9680   14.4660   -3.6180 C   0  0  0  0  0  0  0  0  0  0  0  0
    0.0070   11.9190   -3.8620 C   0  0  0  0  0  0  0  0  0  0  0  0
   -1.3190   15.5190   -4.4600 C   0  0  0  0  0  0  0  0  0  0  0  0
   -1.7320   13.3020   -3.7170 C   0  0  0  0  0  0  0  0  0  0  0  0
    1.0710   12.2140   -4.7450 C   0  0  0  0  0  0  0  0  0  0  0  0
   -1.1360   11.2500   -4.3440 C   0  0  0  0  0  0  0  0  0  0  0  0
    2.3320   12.9340   -4.3130 C   0  0  0  0  0  0  0  0  0  0  0  0
   -2.3850   15.3780   -5.3380 C   0  0  0  0  0  0  0  0  0  0  0  0
   -2.7800   13.1350   -4.5760 N   0  0  0  0  0  0  0  0  0  0  0  0
   -1.2430   10.8710   -5.6730 C   0  0  0  0  0  0  0  0  0  0  0  0
    0.9310   11.8020   -6.0650 C   0  0  0  0  0  0  0  0  0  0  0  0
   -2.6920   16.4440   -6.1320 O   0  0  0  0  0  0  0  0  0  0  0  0
    1.9120   12.0120   -6.9570 O   0  0  0  0  0  0  0  0  0  0  0  0
   -3.0830   14.1810   -5.3700 C   0  0  0  0  0  0  0  0  0  0  0  0
   -0.2000   11.1460   -6.5410 C   0  0  0  0  0  0  0  0  0  0  0  0
  1  2  1  0
  2  3  2  0
  1  4  1  0
  2  5  1  0
  4  6  1  0
  5  7  2  0
  5  8  1  0
  6  9  2  0
  6 10  1  0
  9 11  1  0
  7 12  1  0
  8 13  2  0
 10 14  2  0
  9 15  1  0
 12 16  1  0
 15 17  1  0
 12 18  2  0
 13 18  1  0
 14 19  1  0
 15 19  2  0
M  END
