mac-x0451-mac-x0412
     RDKit          3D

 12 13  0  0  0  0  0  0  0  0999 V2000
   -6.6890   14.7890    2.8100 N   0  0  0  0  0  0  0  0  0  0  0  0
   -5.8100   14.8310    1.6190 C   0  0  0  0  0  0  0  0  0  0  0  0
   -6.2550   14.9510    0.2190 N   0  0  0  0  0  0  0  0  0  0  0  0
   -4.1040   14.7430    1.7620 S   0  0  0  0  0  0  0  0  0  0  0  0
   -7.5000   15.0200   -0.0190 O   0  0  0  0  0  0  0  0  0  0  0  0
   -5.2220   14.9740   -0.6480 C   0  0  0  0  0  0  0  0  0  0  0  0
   -3.9970   14.8640    0.0310 C   0  0  0  0  0  0  0  0  0  0  0  0
   -5.2920   15.0880   -2.0340 C   0  0  0  0  0  0  0  0  0  0  0  0
   -2.8040   14.8560   -0.7000 C   0  0  0  0  0  0  0  0  0  0  0  0
   -4.0950   15.0810   -2.7440 C   0  0  0  0  0  0  0  0  0  0  0  0
   -2.8840   14.9630   -2.0830 C   0  0  0  0  0  0  0  0  0  0  0  0
   -1.7540   14.9530   -2.7970 F   0  0  0  0  0  0  0  0  0  0  0  0
  1  2  1  0
  2  3  2  0
  2  4  1  0
  3  5  1  0
  3  6  1  0
  4  7  1  0
  6  7  2  0
  6  8  1  0
  7  9  1  0
  8 10  2  0
  9 11  2  0
 10 11  1  0
 11 12  1  0
M  CHG  2   3   1   5  -1
M  END
