mac-x0283-mac-x0361
     RDKit          3D

 13 15  0  0  0  0  0  0  0  0999 V2000
   -6.6380   14.7640    1.7290 N   0  0  0  0  0  0  0  0  0  0  0  0
   -5.2800   15.1740    1.7230 C   0  0  0  0  0  0  0  0  0  0  0  0
   -4.7000   15.5980    2.6290 O   0  0  0  0  0  0  0  0  0  0  0  0
   -6.9840   14.6750    0.4150 C   0  0  0  0  0  0  0  0  0  0  0  0
   -8.0080   14.4640   -0.3800 N   0  0  0  0  0  0  0  0  0  0  0  0
   -5.8310   14.8690   -0.2810 C   0  0  0  0  0  0  0  0  0  0  0  0
   -4.6930   15.1300    0.3640 C   0  0  0  0  0  0  0  0  0  0  0  0
   -7.3880   14.5130   -1.7080 O   0  0  0  0  0  0  0  0  0  0  0  0
   -6.0330   14.7530   -1.5840 C   0  0  0  0  0  0  0  0  0  0  0  0
   -3.5450   15.2600   -0.3820 C   0  0  0  0  0  0  0  0  0  0  0  0
   -4.9520   14.8860   -2.4440 C   0  0  0  0  0  0  0  0  0  0  0  0
   -3.6980   15.1320   -1.7970 C   0  0  0  0  0  0  0  0  0  0  0  0
   -2.6140   15.2450   -2.6510 O   0  0  0  0  0  0  0  0  0  0  0  0
  1  2  1  0
  2  3  2  0
  1  4  1  0
  4  5  2  0
  4  6  1  0
  2  7  1  0
  6  7  2  0
  5  8  1  0
  6  9  1  0
  8  9  1  0
  7 10  1  0
  9 11  2  0
 10 12  2  0
 11 12  1  0
 12 13  1  0
M  END
