mac-x0472-diamond-x0926_0_A
     RDKit          3D

 16 17  0  0  0  0  0  0  0  0999 V2000
   -4.2420   15.3170   -2.4650 O   0  0  0  0  0  0  0  0  0  0  0  0
   -3.2520   14.2740   -2.6020 S   0  0  0  0  0  0  0  0  0  0  0  0
   -2.5160   14.1390   -3.8380 O   0  0  0  0  0  0  0  0  0  0  0  0
   -2.1350   14.3890   -1.3440 N   0  0  0  0  0  0  0  0  0  0  0  0
   -4.0490   12.7180   -2.2680 C   0  0  0  0  0  0  0  0  0  0  0  0
   -2.3650   15.2590   -0.2200 C   0  0  2  0  0  0  0  0  0  0  0  0
   -3.3780   11.5410   -2.6250 C   0  0  0  0  0  0  0  0  0  0  0  0
   -5.3100   12.6640   -1.6650 C   0  0  0  0  0  0  0  0  0  0  0  0
   -2.2450   14.5290    1.0450 N   0  0  0  0  0  0  0  0  0  0  0  0
   -4.0480   15.8630   -0.3570 S   0  0  0  0  0  0  0  0  0  0  0  0
   -3.9780   10.3090   -2.3820 C   0  0  0  0  0  0  0  0  0  0  0  0
   -5.9030   11.4220   -1.4250 C   0  0  0  0  0  0  0  0  0  0  0  0
   -4.5730   14.9450    0.9770 C   0  0  0  0  0  0  0  0  0  0  0  0
   -3.4720   14.6540    1.7400 N   0  0  0  0  0  0  0  0  0  0  0  0
   -5.2380   10.2520   -1.7850 C   0  0  0  0  0  0  0  0  0  0  0  0
   -5.7560   14.6470    1.1170 O   0  0  0  0  0  0  0  0  0  0  0  0
  1  2  2  0
  2  3  2  0
  2  4  1  0
  2  5  1  0
  6  4  1  6
  5  7  2  0
  5  8  1  0
  6  9  1  0
  6 10  1  0
  7 11  1  0
  8 12  2  0
 10 13  1  0
  9 14  1  0
 13 14  1  0
 11 15  2  0
 12 15  1  0
 13 16  2  0
M  END
