mac-x0148-mac-x0567
     RDKit          3D

 18 21  0  0  0  0  0  0  0  0999 V2000
   -2.4080   13.7000   -5.6700 C   0  0  0  0  0  0  0  0  0  0  0  0
   -3.1310   14.8340   -5.2220 O   0  0  0  0  0  0  0  0  0  0  0  0
   -2.7290   14.9800   -3.8560 C   0  0  0  0  0  0  0  0  0  0  0  0
   -1.0090   13.8630   -5.0830 C   0  0  1  0  0  0  0  0  0  0  0  0
   -1.2110   14.7260   -3.8060 C   0  0  2  0  0  0  0  0  0  0  0  0
   -0.2580   12.5370   -4.9920 C   0  0  0  0  0  0  0  0  0  0  0  0
   -0.3060   11.9430   -3.6010 C   0  0  0  0  0  0  0  0  0  0  0  0
   -0.7580   14.0790   -2.5270 N   0  0  0  0  0  0  0  0  0  0  0  0
    0.2050   12.9750   -2.6330 C   0  0  0  0  0  0  0  0  0  0  0  0
   -1.1400   14.4110   -1.2140 C   0  0  0  0  0  0  0  0  0  0  0  0
   -0.1380   14.3680   -0.2630 N   0  0  0  0  0  0  0  0  0  0  0  0
   -2.3540   14.7660   -0.7350 C   0  0  0  0  0  0  0  0  0  0  0  0
   -0.3770   14.5670    1.0670 C   0  0  0  0  0  0  0  0  0  0  0  0
   -2.5070   15.0380    0.7210 C   0  0  0  0  0  0  0  0  0  0  0  0
   -3.6840   14.9950   -1.2170 C   0  0  0  0  0  0  0  0  0  0  0  0
   -1.4880   14.8900    1.6030 N   0  0  0  0  0  0  0  0  0  0  0  0
   -3.7020   15.4220    1.0450 N   0  0  0  0  0  0  0  0  0  0  0  0
   -4.3960   15.3810   -0.1490 C   0  0  0  0  0  0  0  0  0  0  0  0
  1  2  1  0
  2  3  1  0
  4  1  1  1
  5  3  1  1
  4  5  1  0
  4  6  1  0
  6  7  1  0
  5  8  1  0
  7  9  1  0
  8  9  1  0
  8 10  1  0
 10 11  1  0
 10 12  2  0
 11 13  1  0
 12 14  1  0
 12 15  1  0
 13 16  2  0
 14 16  1  0
 14 17  2  0
 15 18  2  0
 17 18  1  0
M  END
