mac-x0190-mac-x0415
     RDKit          3D

 27 30  0  0  0  0  0  0  0  0999 V2000
   -9.2750   15.2910    2.5330 O   0  0  0  0  0  0  0  0  0  0  0  0
   -9.0290   14.2380    1.6140 C   0  0  0  0  0  0  0  0  0  0  0  0
   -7.7040   14.4850    1.0050 C   0  0  0  0  0  0  0  0  0  0  0  0
   -7.5590   14.6020   -0.3440 N   0  0  0  0  0  0  0  0  0  0  0  0
   -6.5430   14.6160    1.6180 N   0  0  0  0  0  0  0  0  0  0  0  0
   -6.2420   14.8090   -0.6130 C   0  0  0  0  0  0  0  0  0  0  0  0
   -5.6160   14.8170    0.6250 C   0  0  0  0  0  0  0  0  0  0  0  0
   -5.5830   14.9800   -1.8060 C   0  0  0  0  0  0  0  0  0  0  0  0
   -4.2260   15.0120    0.6870 C   0  0  0  0  0  0  0  0  0  0  0  0
   -4.2090   15.1580   -1.7550 C   0  0  0  0  0  0  0  0  0  0  0  0
   -3.5280   15.1780   -0.5190 C   0  0  0  0  0  0  0  0  0  0  0  0
   -3.4960   15.3120   -3.0680 C   0  0  0  0  0  0  0  0  0  0  0  0
   -4.3230   14.8410   -4.2870 C   0  0  0  0  0  0  0  0  0  0  0  0
   -3.8120   15.4950   -5.4470 O   0  0  0  0  0  0  0  0  0  0  0  0
   -2.4800   15.6620   -5.2970 C   0  0  0  0  0  0  0  0  0  0  0  0
   -1.9450   16.9670   -5.7200 C   0  0  0  0  0  0  0  0  0  0  0  0
   -1.6820   14.7040   -4.7750 C   0  0  0  0  0  0  0  0  0  0  0  0
   -0.3060   14.9890   -4.6130 C   0  0  0  0  0  0  0  0  0  0  0  0
   -0.7150   17.3510   -5.3280 C   0  0  0  0  0  0  0  0  0  0  0  0
    0.7530   14.1970   -4.5350 C   0  0  0  0  0  0  0  0  0  0  0  0
    0.0400   16.4180   -4.4450 C   0  0  2  0  0  0  0  0  0  0  0  0
    0.9740   12.7420   -4.5680 C   0  0  0  0  0  0  0  0  0  0  0  0
    1.7990   15.1970   -4.3990 C   0  0  0  0  0  0  0  0  0  0  0  0
    1.4660   16.4490   -4.3890 N   0  0  0  0  0  0  0  0  0  0  0  0
    0.7710   12.1970   -3.1720 C   0  0  0  0  0  0  0  0  0  0  0  0
   -0.0280   11.1100   -3.1240 O   0  0  0  0  0  0  0  0  0  0  0  0
    1.2500   12.6550   -2.1460 O   0  0  0  0  0  0  0  0  0  0  0  0
  1  2  1  0
  2  3  1  0
  3  4  1  0
  3  5  2  0
  4  6  1  0
  5  7  1  0
  6  7  2  0
  6  8  1  0
  7  9  1  0
  8 10  2  0
  9 11  2  0
 10 11  1  0
 10 12  1  0
 12 13  1  0
 13 14  1  0
 14 15  1  0
 15 16  1  0
 15 17  2  0
 17 18  1  0
 16 19  2  0
 18 20  2  0
 18 21  1  0
 21 19  1  6
 20 22  1  0
 20 23  1  0
 21 24  1  0
 23 24  2  0
 22 25  1  0
 25 26  1  0
 25 27  2  0
M  END
