mac-x0392-mac-x0284
     RDKit          3D

 16 17  0  0  0  0  0  0  0  0999 V2000
    0.3210   15.2610    0.6820 N   0  0  0  0  0  0  0  0  0  0  0  0
   -0.9240   14.7010    0.3830 C   0  0  0  0  0  0  0  0  0  0  0  0
   -1.9620   14.7000    1.2950 C   0  0  0  0  0  0  0  0  0  0  0  0
   -1.1690   14.1360   -0.8540 C   0  0  0  0  0  0  0  0  0  0  0  0
   -0.0660   14.1460   -1.8910 C   0  0  0  0  0  0  0  0  0  0  0  0
   -2.4460   13.5950   -1.1020 C   0  0  0  0  0  0  0  0  0  0  0  0
   -3.1840   14.1970    1.0980 N   0  0  0  0  0  0  0  0  0  0  0  0
   -0.4490   15.1620   -2.7810 O   0  0  0  0  0  0  0  0  0  0  0  0
   -3.4070   13.6500   -0.1030 C   0  0  0  0  0  0  0  0  0  0  0  0
   -1.7820   15.2780   -2.5420 C   0  0  0  0  0  0  0  0  0  0  0  0
   -2.3450   15.6230   -1.3090 C   0  0  0  0  0  0  0  0  0  0  0  0
   -2.6070   15.0000   -3.6170 C   0  0  0  0  0  0  0  0  0  0  0  0
   -3.7340   15.6720   -1.1500 C   0  0  0  0  0  0  0  0  0  0  0  0
   -3.9890   15.0570   -3.4680 C   0  0  0  0  0  0  0  0  0  0  0  0
   -4.3510   16.0190    0.1630 C   0  0  0  0  0  0  0  0  0  0  0  0
   -4.5490   15.3880   -2.2390 C   0  0  0  0  0  0  0  0  0  0  0  0
  1  2  1  0
  2  3  2  0
  2  4  1  0
  4  5  1  0
  4  6  2  0
  3  7  1  0
  5  8  1  0
  6  9  1  0
  7  9  2  0
  8 10  1  0
 10 11  2  0
 10 12  1  0
 11 13  1  0
 12 14  2  0
 13 15  1  0
 13 16  2  0
 14 16  1  0
M  END
