mac-x0178-mac-x0472
     RDKit          3D

 28 30  0  0  0  0  0  0  0  0999 V2000
   -0.4020   18.0300   -6.4240 N   0  0  0  0  0  0  0  0  0  0  0  0
   -1.6960   17.4250   -5.5630 S   0  0  0  0  0  0  0  0  0  0  0  0
   -2.6260   17.0180   -6.6030 O   0  0  0  0  0  0  0  0  0  0  0  0
   -2.0440   18.4570   -4.6270 O   0  0  0  0  0  0  0  0  0  0  0  0
   -1.0210   16.0090   -4.7220 C   0  0  0  0  0  0  0  0  0  0  0  0
    0.3840   15.9700   -4.6050 C   0  0  0  0  0  0  0  0  0  0  0  0
   -1.7660   14.9470   -4.1650 C   0  0  0  0  0  0  0  0  0  0  0  0
   -3.2060   14.7530   -4.1200 N   0  0  0  0  0  0  0  0  0  0  0  0
    1.0250   14.9080   -3.9590 C   0  0  0  0  0  0  0  0  0  0  0  0
   -1.1030   13.9010   -3.5360 C   0  0  0  0  0  0  0  0  0  0  0  0
   -3.7860   14.6170   -2.6920 S   0  0  2  0  0  0  0  0  0  0  0  0
    0.2670   13.8640   -3.4230 C   0  0  0  0  0  0  0  0  0  0  0  0
    0.9330   12.7380   -2.7340 C   0  0  0  0  0  0  0  0  0  0  0  0
   -4.8000   15.4670   -2.1280 O   0  0  0  0  0  0  0  0  0  0  0  0
   -2.5050   14.8310   -1.5730 N   0  0  0  0  0  0  0  0  0  0  0  0
   -4.3110   12.9320   -2.3980 C   0  0  0  0  0  0  0  0  0  0  0  0
    1.8850   12.8360   -1.9990 O   0  0  0  0  0  0  0  0  0  0  0  0
    0.3600   11.5480   -2.9860 O   0  0  0  0  0  0  0  0  0  0  0  0
   -2.8620   14.8640   -0.2670 C   0  0  0  0  0  0  0  0  0  0  0  0
   -3.5300   11.8440   -2.8100 C   0  0  0  0  0  0  0  0  0  0  0  0
   -5.5280   12.7230   -1.7410 C   0  0  0  0  0  0  0  0  0  0  0  0
   -2.1080   14.4190    0.7210 N   0  0  0  0  0  0  0  0  0  0  0  0
   -4.3720   15.5070    0.2670 S   0  0  0  0  0  0  0  0  0  0  0  0
   -3.9780   10.5470   -2.5640 C   0  0  0  0  0  0  0  0  0  0  0  0
   -5.9680   11.4220   -1.4980 C   0  0  0  0  0  0  0  0  0  0  0  0
   -3.8950   15.1190    1.8600 C   0  0  0  0  0  0  0  0  0  0  0  0
   -2.7050   14.5650    1.9500 N   0  0  0  0  0  0  0  0  0  0  0  0
   -5.1940   10.3400   -1.9130 C   0  0  0  0  0  0  0  0  0  0  0  0
  2  1  1  0
  2  3  2  0
  2  4  2  0
  2  5  1  0
  5  6  2  0
  5  7  1  0
  7  8  1  0
  6  9  1  0
  7 10  2  0
  8 11  2  0
  9 12  2  0
 10 12  1  0
 12 13  1  0
 11 14  2  0
 11 15  1  1
 11 16  1  0
 13 17  2  0
 13 18  1  0
 15 19  1  0
 16 20  2  0
 16 21  1  0
 19 22  2  0
 19 23  1  0
 20 24  1  0
 21 25  2  0
 23 26  1  0
 22 27  1  0
 26 27  2  0
 24 28  2  0
 25 28  1  0
M  END
