mac-x0411-mac-x0347
     RDKit          3D

 27 29  0  0  0  0  0  0  0  0999 V2000
    0.7650    8.6360   -7.7080 Cl  0  0  0  0  0  0  0  0  0  0  0  0
   -0.5190    9.4200   -6.8590 C   0  0  0  0  0  0  0  0  0  0  0  0
   -0.3710   10.6830   -6.2330 C   0  0  0  0  0  0  0  0  0  0  0  0
   -1.7320    8.7260   -6.8290 C   0  0  0  0  0  0  0  0  0  0  0  0
    0.8970   11.2890   -6.3050 O   0  0  0  0  0  0  0  0  0  0  0  0
   -1.5180   11.2150   -5.5980 C   0  0  0  0  0  0  0  0  0  0  0  0
   -2.8340    9.2660   -6.1890 C   0  0  0  0  0  0  0  0  0  0  0  0
   -1.5710   12.7300   -4.8100 Cl  0  0  0  0  0  0  0  0  0  0  0  0
    1.2710   12.4690   -5.5420 C   0  0  0  0  0  0  0  0  0  0  0  0
   -2.7250   10.5080   -5.5810 C   0  0  0  0  0  0  0  0  0  0  0  0
    1.3640   12.3340   -3.9970 C   0  0  0  0  0  0  0  0  0  0  0  0
    0.1990   12.7130   -3.5190 N   0  0  0  0  0  0  0  0  0  0  0  0
    2.2970   11.9850   -3.3200 O   0  0  0  0  0  0  0  0  0  0  0  0
    0.0030   13.9230   -3.1990 C   0  0  0  0  0  0  0  0  0  0  0  0
    1.0080   14.8230   -3.2370 O   0  0  0  0  0  0  0  0  0  0  0  0
   -1.2880   14.4550   -2.8820 C   0  0  0  0  0  0  0  0  0  0  0  0
   -1.9700   14.3160   -1.6760 C   0  0  0  0  0  0  0  0  0  0  0  0
   -1.8790   15.1290   -3.9300 C   0  0  0  0  0  0  0  0  0  0  0  0
   -3.2550   14.8680   -1.5960 C   0  0  0  0  0  0  0  0  0  0  0  0
   -3.0950   15.6700   -3.8910 N   0  0  0  0  0  0  0  0  0  0  0  0
   -3.7440   15.5150   -2.7210 C   0  0  0  0  0  0  0  0  0  0  0  0
   -4.1070   14.7920   -0.4230 C   0  0  0  0  0  0  0  0  0  0  0  0
   -3.7770   15.4230    0.7800 C   0  0  0  0  0  0  0  0  0  0  0  0
   -5.3040   14.0670   -0.5010 C   0  0  0  0  0  0  0  0  0  0  0  0
   -4.6290   15.3280    1.8700 C   0  0  0  0  0  0  0  0  0  0  0  0
   -6.1560   13.9700    0.5940 C   0  0  0  0  0  0  0  0  0  0  0  0
   -5.8150   14.6040    1.7780 C   0  0  0  0  0  0  0  0  0  0  0  0
  1  2  1  0
  2  3  2  0
  2  4  1  0
  3  5  1  0
  3  6  1  0
  4  7  2  0
  6  8  1  0
  5  9  1  0
  6 10  2  0
  7 10  1  0
  9 11  1  0
 11 12  1  0
 11 13  2  0
 12 14  2  3
 14 15  1  0
 14 16  1  0
 16 17  2  0
 16 18  1  0
 17 19  1  0
 18 20  2  0
 19 21  2  0
 20 21  1  0
 19 22  1  0
 22 23  2  0
 22 24  1  0
 23 25  1  0
 24 26  2  0
 25 27  2  0
 26 27  1  0
M  END
