mac-x0436-mac-x0204
     RDKit          3D

 25 27  0  0  0  0  0  0  0  0999 V2000
    1.0520   11.2000   -2.6550 O   0  0  0  0  0  0  0  0  0  0  0  0
    0.8850   12.4830   -2.9970 C   0  0  0  0  0  0  0  0  0  0  0  0
    0.2590   13.1980   -2.1550 N   0  0  0  0  0  0  0  0  0  0  0  0
    1.4510   12.8570   -4.3400 C   0  0  0  0  0  0  0  0  0  0  0  0
    0.3530   13.0640   -5.3710 C   0  0  0  0  0  0  0  0  0  0  0  0
    0.0230   14.4810   -2.5520 C   0  0  0  0  0  0  0  0  0  0  0  0
    0.6180   15.4800   -2.1870 O   0  0  0  0  0  0  0  0  0  0  0  0
   -0.3710   11.7770   -5.7000 C   0  0  0  0  0  0  0  0  0  0  0  0
   -1.0880   14.5700   -3.5460 C   0  0  0  0  0  0  0  0  0  0  0  0
   -1.5510   11.3130   -4.8320 C   0  0  0  0  0  0  0  0  0  0  0  0
    0.0350   11.0940   -6.7240 N   0  0  0  0  0  0  0  0  0  0  0  0
   -1.3330   15.6550   -4.3940 C   0  0  0  0  0  0  0  0  0  0  0  0
   -1.9460   13.4820   -3.6440 C   0  0  0  0  0  0  0  0  0  0  0  0
   -1.7510   11.7420   -3.7170 O   0  0  0  0  0  0  0  0  0  0  0  0
   -2.3550   10.3670   -5.4050 N   0  0  0  0  0  0  0  0  0  0  0  0
   -0.6480    9.9110   -7.0290 C   0  0  0  0  0  0  0  0  0  0  0  0
   -2.4130   15.5840   -5.2800 C   0  0  0  0  0  0  0  0  0  0  0  0
   -2.9960   13.3890   -4.5020 N   0  0  0  0  0  0  0  0  0  0  0  0
   -2.6600   16.6390   -6.1070 O   0  0  0  0  0  0  0  0  0  0  0  0
   -1.8370    9.5340   -6.3840 C   0  0  0  0  0  0  0  0  0  0  0  0
   -0.1230    9.0850   -8.0120 C   0  0  0  0  0  0  0  0  0  0  0  0
   -3.2050   14.4470   -5.3010 C   0  0  0  0  0  0  0  0  0  0  0  0
   -0.7740    7.8970   -8.3500 C   0  0  0  0  0  0  0  0  0  0  0  0
   -2.4940    8.3520   -6.7120 C   0  0  0  0  0  0  0  0  0  0  0  0
   -1.9560    7.5340   -7.7020 C   0  0  0  0  0  0  0  0  0  0  0  0
  1  2  1  0
  2  3  2  3
  2  4  1  0
  4  5  1  0
  3  6  1  0
  6  7  2  0
  5  8  1  0
  6  9  1  0
  8 10  1  0
  8 11  2  0
  9 12  2  0
  9 13  1  0
 10 14  2  0
 10 15  1  0
 11 16  1  0
 12 17  1  0
 13 18  2  0
 17 19  1  0
 15 20  1  0
 16 20  2  0
 16 21  1  0
 17 22  2  0
 18 22  1  0
 21 23  2  0
 20 24  1  0
 23 25  1  0
 24 25  2  0
M  END
