mac-x0398-mac-x0472
     RDKit          3D

 23 25  0  0  0  0  0  0  0  0999 V2000
   -6.8520   14.7740    2.1030 N   0  0  0  0  0  0  0  0  0  0  0  0
   -6.1430   14.7610    0.8690 C   0  0  0  0  0  0  0  0  0  0  0  0
   -4.8990   14.2380    0.9150 C   0  0  0  0  0  0  0  0  0  0  0  0
   -6.6190   15.2360   -0.3640 C   0  0  0  0  0  0  0  0  0  0  0  0
   -5.8030   15.1560   -1.4790 C   0  0  0  0  0  0  0  0  0  0  0  0
   -4.1410   14.1740   -0.1770 C   0  0  0  0  0  0  0  0  0  0  0  0
   -6.2380   15.5960   -2.7360 O   0  0  0  0  0  0  0  0  0  0  0  0
   -4.5260   14.6170   -1.4030 C   0  0  0  0  0  0  0  0  0  0  0  0
   -3.4770   14.4310   -2.7250 S   0  0  0  0  0  0  0  0  0  0  0  0
   -4.7350   14.5000   -3.6440 O   0  0  0  0  0  0  0  0  0  0  0  0
   -2.4510   14.4730   -1.7400 O   0  0  0  0  0  0  0  0  0  0  0  0
   -2.7890   15.2120   -3.7540 O   0  0  0  0  0  0  0  0  0  0  0  0
   -3.8350   12.6250   -2.6100 C   0  0  0  0  0  0  0  0  0  0  0  0
   -2.6090   14.6740   -0.3700 C   0  0  0  0  0  0  0  0  0  0  0  0
   -3.0150   11.6400   -2.9730 C   0  0  0  0  0  0  0  0  0  0  0  0
   -5.0890   12.4040   -2.0760 C   0  0  0  0  0  0  0  0  0  0  0  0
   -1.9600   14.1930    0.6930 N   0  0  0  0  0  0  0  0  0  0  0  0
   -3.8000   15.6540    0.4190 S   0  0  0  0  0  0  0  0  0  0  0  0
   -3.4830   10.3270   -2.7930 C   0  0  0  0  0  0  0  0  0  0  0  0
   -5.5450   11.1030   -1.9010 C   0  0  0  0  0  0  0  0  0  0  0  0
   -3.3970   15.3050    2.0200 C   0  0  0  0  0  0  0  0  0  0  0  0
   -2.3500   14.5010    1.8410 N   0  0  0  0  0  0  0  0  0  0  0  0
   -4.7400   10.0610   -2.2640 C   0  0  0  0  0  0  0  0  0  0  0  0
  1  2  1  0
  2  3  2  0
  2  4  1  0
  4  5  2  0
  3  6  1  0
  5  7  1  0
  5  8  1  0
  6  8  2  0
  8  9  1  0
  9 10  2  0
  9 11  1  0
  9 12  1  0
  9 13  1  0
 11 14  1  0
 13 15  2  0
 13 16  1  0
 14 17  2  0
 14 18  1  0
 15 19  1  0
 16 20  2  0
 18 21  1  0
 17 22  1  0
 21 22  2  0
 19 23  2  0
 20 23  1  0
M  END
