mac-x1493-mac-x0306
     RDKit          3D

 13 14  0  0  0  0  0  0  0  0999 V2000
   -1.2290   14.7330   -1.6020 O   0  0  0  0  0  0  0  0  0  0  0  0
   -2.3030   14.9060   -2.3960 C   0  0  0  0  0  0  0  0  0  0  0  0
   -2.1830   15.0780   -3.5930 O   0  0  0  0  0  0  0  0  0  0  0  0
   -3.5700   14.8550   -1.6500 C   0  0  0  0  0  0  0  0  0  0  0  0
   -3.6570   14.9650   -0.2620 C   0  0  0  0  0  0  0  0  0  0  0  0
   -4.7450   14.6830   -2.3590 C   0  0  0  0  0  0  0  0  0  0  0  0
   -4.9130   14.8860    0.3540 C   0  0  0  0  0  0  0  0  0  0  0  0
   -5.9710   14.6050   -1.7950 N   0  0  0  0  0  0  0  0  0  0  0  0
   -6.0520   14.6980   -0.4600 C   0  0  0  0  0  0  0  0  0  0  0  0
   -5.0570   14.9840    1.7400 C   0  0  0  0  0  0  0  0  0  0  0  0
   -7.2990   14.6070    0.1490 C   0  0  0  0  0  0  0  0  0  0  0  0
   -6.3210   14.8900    2.3250 C   0  0  0  0  0  0  0  0  0  0  0  0
   -7.4420   14.6980    1.5340 C   0  0  0  0  0  0  0  0  0  0  0  0
  1  2  1  0
  2  3  2  0
  2  4  1  0
  4  5  2  0
  4  6  1  0
  5  7  1  0
  6  8  2  0
  7  9  2  0
  8  9  1  0
  7 10  1  0
  9 11  1  0
 10 12  2  0
 11 13  2  0
 12 13  1  0
M  END
