mac-x0223-mac-x0345
     RDKit          3D

 24 25  0  0  0  0  0  0  0  0999 V2000
    1.0520   18.3290   -5.5030 C   0  0  0  0  0  0  0  0  0  0  0  0
   -0.2990   18.0130   -5.1990 O   0  0  0  0  0  0  0  0  0  0  0  0
   -0.4990   16.6820   -4.9600 C   0  0  0  0  0  0  0  0  0  0  0  0
   -1.8090   16.1410   -5.0580 C   0  0  0  0  0  0  0  0  0  0  0  0
    0.5540   15.8130   -4.6230 C   0  0  0  0  0  0  0  0  0  0  0  0
   -2.9050   16.8500   -5.3870 O   0  0  0  0  0  0  0  0  0  0  0  0
   -2.0080   14.8010   -4.8190 C   0  0  0  0  0  0  0  0  0  0  0  0
    0.2990   14.4540   -4.3910 C   0  0  0  0  0  0  0  0  0  0  0  0
    1.3610   13.4650   -4.0260 C   0  0  0  0  0  0  0  0  0  0  0  0
   -3.8860   15.8890   -5.8980 C   0  0  0  0  0  0  0  0  0  0  0  0
   -0.9850   13.9700   -4.4930 C   0  0  0  0  0  0  0  0  0  0  0  0
    0.8390   12.5380   -2.9610 C   0  0  0  0  0  0  0  0  0  0  0  0
   -4.1560   14.7830   -4.8210 C   0  0  0  0  0  0  0  0  0  0  0  0
    0.2660   11.4650   -3.0760 O   0  0  0  0  0  0  0  0  0  0  0  0
    1.0540   13.0540   -1.7360 O   0  0  0  0  0  0  0  0  0  0  0  0
   -5.4290   14.8310   -4.0530 N   0  0  0  0  0  0  0  0  0  0  0  0
   -5.3140   14.9680   -2.6480 C   0  0  0  0  0  0  0  0  0  0  0  0
   -4.0650   15.3070   -2.1720 C   0  0  0  0  0  0  0  0  0  0  0  0
   -6.3630   14.7780   -1.8020 N   0  0  0  0  0  0  0  0  0  0  0  0
   -6.1640   14.9310   -0.4600 C   0  0  0  0  0  0  0  0  0  0  0  0
   -3.8710   15.4590   -0.8280 C   0  0  0  0  0  0  0  0  0  0  0  0
   -7.3670   14.6950    0.4150 C   0  0  0  0  0  0  0  0  0  0  0  0
   -4.9080   15.2810    0.0310 C   0  0  0  0  0  0  0  0  0  0  0  0
   -4.4170   15.5540    1.8030 Br  0  0  0  0  0  0  0  0  0  0  0  0
  1  2  1  0
  2  3  1  0
  3  4  2  0
  3  5  1  0
  4  6  1  0
  4  7  1  0
  5  8  2  0
  8  9  1  0
  6 10  1  0
  7 11  2  0
  8 11  1  0
  9 12  1  0
 10 13  1  0
 12 14  2  0
 12 15  1  0
 13 16  1  0
 16 17  1  0
 17 18  2  0
 17 19  1  0
 19 20  2  0
 18 21  1  0
 20 22  1  0
 20 23  1  0
 21 23  2  0
 23 24  1  0
M  END
