mac-x0341-mac-x0402
     RDKit          3D

 13 14  0  0  0  0  0  0  0  0999 V2000
   -6.8520   14.7410    2.3600 N   0  0  0  0  0  0  0  0  0  0  0  0
   -6.1080   14.7800    1.2300 C   0  0  0  0  0  0  0  0  0  0  0  0
   -4.8240   14.8680    1.3380 N   0  0  0  0  0  0  0  0  0  0  0  0
   -6.7420   14.7210    0.0230 N   0  0  0  0  0  0  0  0  0  0  0  0
   -6.0830   14.9930   -1.1520 C   0  0  0  0  0  0  0  0  0  0  0  0
   -4.0490   14.8610    0.1840 C   0  0  0  0  0  0  0  0  0  0  0  0
   -6.6630   15.2620   -2.1910 O   0  0  0  0  0  0  0  0  0  0  0  0
   -4.6150   14.9210   -1.0820 C   0  0  0  0  0  0  0  0  0  0  0  0
   -2.6600   14.7800    0.3050 C   0  0  0  0  0  0  0  0  0  0  0  0
   -1.8620   14.7570   -0.8400 C   0  0  0  0  0  0  0  0  0  0  0  0
   -3.8380   14.9040   -2.2320 C   0  0  0  0  0  0  0  0  0  0  0  0
   -2.4590   14.8200   -2.1030 C   0  0  0  0  0  0  0  0  0  0  0  0
   -1.4930   14.7850   -3.5210 Cl  0  0  0  0  0  0  0  0  0  0  0  0
  1  2  1  0
  2  3  2  0
  2  4  1  0
  4  5  1  0
  3  6  1  0
  5  7  2  0
  5  8  1  0
  6  8  2  0
  6  9  1  0
  9 10  2  0
  8 11  1  0
 10 12  1  0
 11 12  2  0
 12 13  1  0
M  END
