mac-x0357-mac-x0204
     RDKit          3D

 19 20  0  0  0  0  0  0  0  0999 V2000
    2.3940   13.1450   -4.5890 C   0  0  0  0  0  0  0  0  0  0  0  0
    1.1160   12.3700   -4.8310 C   0  0  0  0  0  0  0  0  0  0  0  0
    0.9160   11.7480   -6.0640 C   0  0  0  0  0  0  0  0  0  0  0  0
    0.1060   12.2440   -3.8550 C   0  0  0  0  0  0  0  0  0  0  0  0
    1.8870   11.8570   -6.9860 O   0  0  0  0  0  0  0  0  0  0  0  0
    0.2030   12.8900   -2.4950 C   0  0  2  0  0  0  0  0  0  0  0  0
   -1.0530   11.4960   -4.1650 C   0  0  0  0  0  0  0  0  0  0  0  0
   -0.2290   11.0200   -6.3640 C   0  0  0  0  0  0  0  0  0  0  0  0
   -0.2790   14.3140   -2.6880 C   0  0  0  0  0  0  0  0  0  0  0  0
    1.5410   12.8410   -2.0180 O   0  0  0  0  0  0  0  0  0  0  0  0
   -1.2210   10.8930   -5.4060 C   0  0  0  0  0  0  0  0  0  0  0  0
    0.1690   15.2530   -2.0290 O   0  0  0  0  0  0  0  0  0  0  0  0
   -1.3070   14.4650   -3.7480 C   0  0  0  0  0  0  0  0  0  0  0  0
   -1.4070   15.6220   -4.5260 C   0  0  0  0  0  0  0  0  0  0  0  0
   -2.2040   13.4360   -4.0030 C   0  0  0  0  0  0  0  0  0  0  0  0
   -2.3950   15.6880   -5.5150 C   0  0  0  0  0  0  0  0  0  0  0  0
   -3.1640   13.4690   -4.9530 N   0  0  0  0  0  0  0  0  0  0  0  0
   -2.5470   16.7950   -6.3200 O   0  0  0  0  0  0  0  0  0  0  0  0
   -3.2380   14.5980   -5.6900 C   0  0  0  0  0  0  0  0  0  0  0  0
  1  2  1  0
  2  3  2  0
  2  4  1  0
  3  5  1  0
  4  6  1  0
  4  7  2  0
  3  8  1  0
  6  9  1  0
  6 10  1  6
  7 11  1  0
  8 11  2  0
  9 12  2  0
  9 13  1  0
 13 14  2  0
 13 15  1  0
 14 16  1  0
 15 17  2  0
 16 18  1  0
 16 19  2  0
 17 19  1  0
M  END
