mac-x0398-mac-x0588
     RDKit          3D

 26 29  0  0  0  0  0  0  0  0999 V2000
   -6.9150   14.5710    2.0830 N   0  0  0  0  0  0  0  0  0  0  0  0
   -6.3030   14.5800    0.8240 C   0  0  0  0  0  0  0  0  0  0  0  0
   -5.0000   14.1550    0.7490 C   0  0  0  0  0  0  0  0  0  0  0  0
   -6.9510   15.0020   -0.3580 C   0  0  0  0  0  0  0  0  0  0  0  0
   -6.2720   15.0040   -1.5980 C   0  0  0  0  0  0  0  0  0  0  0  0
   -4.3420   14.1570   -0.4630 C   0  0  0  0  0  0  0  0  0  0  0  0
   -6.9440   15.4230   -2.7000 O   0  0  0  0  0  0  0  0  0  0  0  0
   -4.9620   14.5900   -1.6500 C   0  0  0  0  0  0  0  0  0  0  0  0
   -4.0620   14.5560   -2.8240 C   0  0  0  0  0  0  0  0  0  0  0  0
   -4.3100   14.4380   -4.0240 O   0  0  0  0  0  0  0  0  0  0  0  0
   -2.8400   14.7330   -2.0100 C   0  0  2  0  0  0  0  0  0  0  0  0
   -3.2770   15.8400   -1.1790 N   0  0  0  0  0  0  0  0  0  0  0  0
   -1.4140   14.7810   -2.2510 N   0  0  0  0  0  0  0  0  0  0  0  0
   -3.1660   15.3550    0.1370 C   0  0  2  0  0  0  0  0  0  0  0  0
   -1.0830   14.3750   -0.8610 C   0  0  2  0  0  0  0  0  0  0  0  0
   -1.1330   16.1880   -2.3650 C   0  0  0  0  0  0  0  0  0  0  0  0
   -3.8270   16.2850    1.0250 N   0  0  0  0  0  0  0  0  0  0  0  0
   -1.6840   15.2810    0.2480 C   0  0  2  0  0  0  0  0  0  0  0  0
    0.2680   14.5620   -0.4240 N   0  0  0  0  0  0  0  0  0  0  0  0
   -0.4590   16.9000   -3.5530 C   0  0  2  0  0  0  0  0  0  0  0  0
   -1.2270   14.6420    1.4440 N   0  0  0  0  0  0  0  0  0  0  0  0
    0.1220   14.4470    1.0400 C   0  0  0  0  0  0  0  0  0  0  0  0
   -1.4750   17.5720   -4.3480 O   0  0  0  0  0  0  0  0  0  0  0  0
    0.3790   16.1710   -4.5800 C   0  0  0  0  0  0  0  0  0  0  0  0
    0.6200   17.3870   -5.4460 C   0  0  0  0  0  0  0  0  0  0  0  0
   -0.7790   17.9880   -5.5330 C   0  0  0  0  0  0  0  0  0  0  0  0
  1  2  1  0
  2  3  2  0
  2  4  1  0
  4  5  2  0
  3  6  1  0
  5  7  1  0
  5  8  1  0
  6  8  2  0
  8  9  1  0
  9 10  2  0
 11  9  1  6
 11 12  1  0
 11 13  1  0
 12 14  1  0
 13 15  1  0
 13 16  1  0
 14 17  1  1
 14 18  1  0
 15 18  1  0
 15 19  1  6
 20 16  1  1
 18 21  1  1
 19 22  1  0
 21 22  1  0
 20 23  1  0
 20 24  1  0
 24 25  1  0
 23 26  1  0
 25 26  1  0
M  END
