mac-x0584-diamond-x0689_0_A
     RDKit          3D

 20 23  0  0  0  0  0  0  0  0999 V2000
   -2.3410   14.1720    2.0660 N   0  0  0  0  0  0  0  0  0  0  0  0
   -3.7000   13.7830    1.6420 C   0  0  0  0  0  0  0  0  0  0  0  0
   -1.8490   15.0060    1.0830 N   0  0  0  0  0  0  0  0  0  0  0  0
   -0.6720   14.7230    0.4160 C   0  0  0  0  0  0  0  0  0  0  0  0
   -2.9380   15.2820    0.3860 C   0  0  0  0  0  0  0  0  0  0  0  0
   -0.5700   14.5940   -0.8920 N   0  0  0  0  0  0  0  0  0  0  0  0
   -2.9010   15.0920   -1.0640 C   0  0  0  0  0  0  0  0  0  0  0  0
   -4.0900   15.6920    0.8230 N   0  0  0  0  0  0  0  0  0  0  0  0
   -1.7480   14.7620   -1.6620 C   0  0  0  0  0  0  0  0  0  0  0  0
   -4.2410   15.3650   -1.4400 C   0  0  0  0  0  0  0  0  0  0  0  0
   -4.8620   15.7180   -0.3170 C   0  0  0  0  0  0  0  0  0  0  0  0
   -1.7750   14.6230   -3.0590 N   0  0  0  0  0  0  0  0  0  0  0  0
   -0.8490   14.2690   -4.1100 C   0  0  2  0  0  0  0  0  0  0  0  0
   -2.8140   15.3690   -3.7880 C   0  0  0  0  0  0  0  0  0  0  0  0
    0.4300   13.5370   -3.8220 C   0  0  0  0  0  0  0  0  0  0  0  0
   -0.6370   15.6330   -4.7430 C   0  0  0  0  0  0  0  0  0  0  0  0
   -2.0850   16.0400   -4.9590 C   0  0  0  0  0  0  0  0  0  0  0  0
    0.9020   13.1680   -2.4090 C   0  0  0  0  0  0  0  0  0  0  0  0
    0.3630   12.0340   -4.1460 C   0  0  0  0  0  0  0  0  0  0  0  0
    1.2800   11.8170   -2.9610 C   0  0  0  0  0  0  0  0  0  0  0  0
  1  2  1  0
  1  3  1  0
  3  4  1  0
  3  5  1  0
  4  6  2  0
  5  7  1  0
  5  8  2  0
  6  9  1  0
  7  9  2  0
  7 10  1  0
  8 11  1  0
 10 11  2  0
  9 12  1  0
 12 13  1  0
 12 14  1  0
 13 15  1  1
 13 16  1  0
 14 17  1  0
 16 17  1  0
 15 18  1  0
 15 19  1  0
 18 20  1  0
 19 20  1  0
M  END
