mac-x0142-mac-x0116
     RDKit          3D

 24 28  0  0  0  0  0  0  0  0999 V2000
   -5.9910   14.6550    1.8270 C   0  0  0  0  0  0  0  0  0  0  0  0
   -4.6150   15.1840    1.9230 N   0  0  0  0  0  0  0  0  0  0  0  0
   -3.8870   15.1290    0.6970 N   0  0  0  0  0  0  0  0  0  0  0  0
   -6.1430   13.1740    1.7190 C   0  0  0  0  0  0  0  0  0  0  0  0
   -5.9930   12.6140    0.4790 O   0  0  0  0  0  0  0  0  0  0  0  0
   -6.4290   12.1870    2.6410 C   0  0  0  0  0  0  0  0  0  0  0  0
   -2.5300   14.9320    0.4910 C   0  0  0  0  0  0  0  0  0  0  0  0
   -4.5240   15.2840   -0.5000 C   0  0  0  0  0  0  0  0  0  0  0  0
   -6.4510   10.9660    1.9330 C   0  0  0  0  0  0  0  0  0  0  0  0
   -6.1810   11.2770    0.6250 C   0  0  0  0  0  0  0  0  0  0  0  0
   -1.5760   14.7430    1.4320 N   0  0  0  0  0  0  0  0  0  0  0  0
   -2.3280   14.9660   -0.8960 C   0  0  0  0  0  0  0  0  0  0  0  0
   -3.5950   15.1870   -1.4970 C   0  0  0  0  0  0  0  0  0  0  0  0
   -0.3660   14.6030    0.8630 C   0  0  0  0  0  0  0  0  0  0  0  0
   -1.0090   14.7910   -1.3860 C   0  0  0  0  0  0  0  0  0  0  0  0
   -0.7120   14.8070   -2.7730 N   0  0  0  0  0  0  0  0  0  0  0  0
   -0.0340   14.6150   -0.4550 N   0  0  0  0  0  0  0  0  0  0  0  0
   -1.7720   14.5950   -3.7750 C   0  0  0  0  0  0  0  0  0  0  0  0
    0.6790   14.9150   -3.2370 C   0  0  0  0  0  0  0  0  0  0  0  0
    0.9800   13.6890   -4.0870 C   0  0  0  0  0  0  0  0  0  0  0  0
   -1.3970   13.4710   -4.7670 C   0  0  0  0  0  0  0  0  0  0  0  0
    2.4030   13.1880   -4.2180 C   0  0  0  0  0  0  0  0  0  0  0  0
    1.4240   12.4320   -3.3680 C   0  0  0  0  0  0  0  0  0  0  0  0
    0.0480   13.5260   -5.2560 C   0  0  0  0  0  0  0  0  0  0  0  0
  1  2  1  0
  2  3  1  0
  1  4  1  0
  4  5  1  0
  4  6  2  0
  3  7  1  0
  3  8  1  0
  6  9  1  0
  5 10  1  0
  9 10  2  0
  7 11  2  0
  7 12  1  0
  8 13  2  0
 12 13  1  0
 11 14  1  0
 12 15  2  0
 15 16  1  0
 14 17  2  0
 15 17  1  0
 16 18  1  0
 16 19  1  0
 20 19  1  0
 18 21  1  0
 20 22  1  0
 20 23  1  0
 22 23  1  0
 20 24  1  0
 21 24  1  0
M  END
