mac-x0328-diamond-x0104_0_A
     RDKit          3D

 19 20  0  0  0  0  0  0  0  0999 V2000
   -2.2300   14.8260   -3.1290 O   0  0  0  0  0  0  0  0  0  0  0  0
   -2.3580   14.7300   -1.7810 C   0  0  0  0  0  0  0  0  0  0  0  0
   -1.3990   14.5540   -1.0550 O   0  0  0  0  0  0  0  0  0  0  0  0
   -3.7730   14.8630   -1.2790 C   0  0  0  0  0  0  0  0  0  0  0  0
   -4.1970   14.7410    0.0980 C   0  0  0  0  0  0  0  0  0  0  0  0
   -4.7200   15.1260   -2.2650 C   0  0  0  0  0  0  0  0  0  0  0  0
   -5.5880   14.8810    0.4730 C   0  0  0  0  0  0  0  0  0  0  0  0
   -6.0590   15.2660   -1.9270 C   0  0  0  0  0  0  0  0  0  0  0  0
   -6.1790   14.7810    1.8550 N   0  0  0  0  0  0  0  0  0  0  0  0
   -6.4720   15.1430   -0.5950 C   0  0  0  0  0  0  0  0  0  0  0  0
   -7.7950   15.2800   -0.2970 O   0  0  0  0  0  0  0  0  0  0  0  0
   -7.5160   14.9480    2.4190 C   0  0  0  0  0  0  0  0  0  0  0  0
   -7.5100   14.8460    3.8300 N   0  0  0  0  0  0  0  0  0  0  0  0
   -8.5370   15.1570    1.7720 O   0  0  0  0  0  0  0  0  0  0  0  0
   -8.6040   14.9540    4.7430 C   0  0  0  0  0  0  0  0  0  0  0  0
   -8.6730   15.1140    6.1210 C   0  0  0  0  0  0  0  0  0  0  0  0
  -10.1770   14.8730    4.0690 S   0  0  0  0  0  0  0  0  0  0  0  0
  -10.9460   15.0450    5.5970 C   0  0  0  0  0  0  0  0  0  0  0  0
  -10.0250   15.1660    6.6140 C   0  0  0  0  0  0  0  0  0  0  0  0
  1  2  1  0
  2  3  2  0
  2  4  1  0
  4  5  2  0
  4  6  1  0
  5  7  1  0
  6  8  2  0
  7  9  1  0
  7 10  2  0
  8 10  1  0
 10 11  1  0
  9 12  1  0
 12 13  1  0
 12 14  2  0
 13 15  1  0
 15 16  2  0
 15 17  1  0
 17 18  1  0
 16 19  1  0
 18 19  2  0
M  END
