mac-x0404-diamond-x0689_0_A
     RDKit          3D

 25 27  0  0  0  0  0  0  0  0999 V2000
    2.2840   12.4900   -2.2830 O   0  0  0  0  0  0  0  0  0  0  0  0
    1.1430   12.3900   -3.0910 C   0  0  0  0  0  0  0  0  0  0  0  0
    0.6130   11.0820   -2.9160 O   0  0  0  0  0  0  0  0  0  0  0  0
    1.5680   12.7030   -4.5330 C   0  0  0  0  0  0  0  0  0  0  0  0
    0.2060   13.4200   -2.5050 C   0  0  0  0  0  0  0  0  0  0  0  0
    1.2880   14.0760   -4.7650 O   0  0  0  0  0  0  0  0  0  0  0  0
    0.6810   14.1190   -1.2400 C   0  0  0  0  0  0  0  0  0  0  0  0
   -0.0210   14.4760   -4.9200 C   0  0  0  0  0  0  0  0  0  0  0  0
   -0.4580   14.4000   -0.3670 C   0  0  0  0  0  0  0  0  0  0  0  0
   -0.1900   15.8560   -5.1160 C   0  0  0  0  0  0  0  0  0  0  0  0
   -1.1370   13.6370   -4.8990 C   0  0  0  0  0  0  0  0  0  0  0  0
   -1.6620   14.6830   -0.9280 C   0  0  0  0  0  0  0  0  0  0  0  0
   -0.4400   14.3990    1.0090 C   0  0  0  0  0  0  0  0  0  0  0  0
   -1.4810   16.3940   -5.2960 C   0  0  0  0  0  0  0  0  0  0  0  0
   -2.4160   14.1730   -5.0730 C   0  0  0  0  0  0  0  0  0  0  0  0
    0.9010   16.7200   -5.1430 C   0  0  0  0  0  0  0  0  0  0  0  0
   -2.7580   14.9550   -0.2380 N   0  0  0  0  0  0  0  0  0  0  0  0
   -1.5160   14.6610    1.7560 N   0  0  0  0  0  0  0  0  0  0  0  0
   -2.5870   15.5410   -5.2700 C   0  0  0  0  0  0  0  0  0  0  0  0
   -1.6280   17.7700   -5.5050 C   0  0  0  0  0  0  0  0  0  0  0  0
    0.7520   18.0850   -5.3480 C   0  0  0  0  0  0  0  0  0  0  0  0
   -2.6370   14.9400    1.0820 C   0  0  0  0  0  0  0  0  0  0  0  0
   -3.7400   15.2370    1.8330 N   0  0  0  0  0  0  0  0  0  0  0  0
   -0.5220   18.6050   -5.5330 C   0  0  0  0  0  0  0  0  0  0  0  0
   -4.9680   14.9820    1.1310 C   0  0  0  0  0  0  0  0  0  0  0  0
  2  1  1  0
  2  3  1  0
  2  4  1  0
  2  5  1  0
  4  6  1  0
  5  7  1  0
  6  8  1  0
  7  9  1  0
  8 10  1  0
  8 11  2  0
  9 12  2  0
  9 13  1  0
 10 14  2  0
 11 15  1  0
 10 16  1  0
 12 17  1  0
 13 18  2  0
 14 19  1  0
 15 19  2  0
 14 20  1  0
 16 21  2  0
 17 22  2  0
 18 22  1  0
 22 23  1  0
 20 24  2  0
 21 24  1  0
 23 25  1  0
M  END
