mac-x0213-diamond-x0626_0_A
     RDKit          3D

 25 27  0  0  0  0  0  0  0  0999 V2000
    0.3870   11.7110   -3.1750 O   0  0  0  0  0  0  0  0  0  0  0  0
    0.0900   13.0260   -3.1470 C   0  0  0  0  0  0  0  0  0  0  0  0
   -0.2750   13.6780   -2.1480 N   0  0  0  0  0  0  0  0  0  0  0  0
    0.1670   13.7500   -4.4260 C   0  0  0  0  0  0  0  0  0  0  0  0
   -0.4220   13.0130   -0.9230 C   0  0  0  0  0  0  0  0  0  0  0  0
   -1.2820   14.1670   -4.7290 C   0  0  0  0  0  0  0  0  0  0  0  0
    1.0320   15.0180   -4.2680 C   0  0  0  0  0  0  0  0  0  0  0  0
    0.3470   13.7840    0.1260 C   0  0  0  0  0  0  0  0  0  0  0  0
   -1.1760   15.6280   -4.9750 C   0  0  0  0  0  0  0  0  0  0  0  0
    0.1150   16.1050   -4.7280 C   0  0  0  0  0  0  0  0  0  0  0  0
   -0.4220   14.8080    0.9060 C   0  0  0  0  0  0  0  0  0  0  0  0
   -2.1880   16.4710   -5.4060 C   0  0  0  0  0  0  0  0  0  0  0  0
    0.4170   17.4400   -4.9160 C   0  0  0  0  0  0  0  0  0  0  0  0
   -1.8840   17.8130   -5.6000 C   0  0  0  0  0  0  0  0  0  0  0  0
   -0.5940   18.2900   -5.3580 C   0  0  0  0  0  0  0  0  0  0  0  0
   -1.7940   14.8390    0.3980 C   0  0  0  0  0  0  0  0  0  0  0  0
   -2.8350   14.7920    1.2800 N   0  0  0  0  0  0  0  0  0  0  0  0
   -2.1500   14.9120   -0.9300 C   0  0  0  0  0  0  0  0  0  0  0  0
   -3.9560   14.8370    0.6190 C   0  0  0  0  0  0  0  0  0  0  0  0
   -3.8390   14.9350   -1.0700 S   0  0  0  0  0  0  0  0  0  0  0  0
   -5.1290   14.8030    1.2690 N   0  0  0  0  0  0  0  0  0  0  0  0
   -6.3800   14.6410    0.8010 C   0  0  0  0  0  0  0  0  0  0  0  0
   -6.5260   14.7460   -0.4250 O   0  0  0  0  0  0  0  0  0  0  0  0
   -7.5490   14.3590    1.7000 C   0  0  0  0  0  0  0  0  0  0  0  0
   -8.8640   14.6260    0.9850 C   0  0  0  0  0  0  0  0  0  0  0  0
  1  2  1  0
  2  3  2  3
  2  4  1  0
  3  5  1  0
  4  6  1  0
  4  7  1  0
  5  8  1  0
  6  9  1  0
  7 10  1  0
  9 10  2  0
  8 11  1  0
  9 12  1  0
 10 13  1  0
 12 14  2  0
 13 15  2  0
 14 15  1  0
 11 16  1  0
 16 17  1  0
 16 18  2  0
 17 19  2  0
 18 20  1  0
 19 20  1  0
 19 21  1  0
 21 22  1  0
 22 23  2  0
 22 24  1  0
 24 25  1  0
M  END
