mac-x0365-diamond-x0421_0_A
     RDKit          3D

 14 15  0  0  0  0  0  0  0  0999 V2000
   -1.0460   14.7290   -0.9170 O   0  0  0  0  0  0  0  0  0  0  0  0
   -2.0220   14.7220   -1.8290 C   0  0  0  0  0  0  0  0  0  0  0  0
   -1.7500   14.8800   -3.0840 N   0  0  0  0  0  0  0  0  0  0  0  0
   -3.4430   14.5170   -1.3520 C   0  0  2  0  0  0  0  0  0  0  0  0
   -2.8700   14.8470   -3.8610 N   0  0  0  0  0  0  0  0  0  0  0  0
   -4.4060   15.4040   -2.1000 C   0  0  0  0  0  0  0  0  0  0  0  0
   -3.7480   14.6580    0.1470 C   0  0  0  0  0  0  0  0  0  0  0  0
   -5.7480   14.7430   -2.1120 C   0  0  2  0  0  0  0  0  0  0  0  0
   -5.2630   14.3920    0.4290 C   0  0  0  0  0  0  0  0  0  0  0  0
   -6.6460   15.5180   -2.7480 F   0  0  0  0  0  0  0  0  0  0  0  0
   -6.2720   14.4590   -0.7160 C   0  0  1  0  0  0  0  0  0  0  0  0
   -5.6150   13.3190    1.4460 C   0  0  0  0  0  0  0  0  0  0  0  0
   -5.8420   14.7360    1.7970 C   0  0  0  0  0  0  0  0  0  0  0  0
   -7.3040   15.3790   -0.3770 O   0  0  0  0  0  0  0  0  0  0  0  0
  1  2  1  0
  2  3  2  3
  4  2  1  1
  3  5  1  0
  4  6  1  0
  4  7  1  0
  6  8  1  0
  9  7  1  0
  8 10  1  1
  8 11  1  0
  9 11  1  0
  9 12  1  0
  9 13  1  0
 12 13  1  0
 11 14  1  1
M  END
