mac-x0588-mac-x0347
     RDKit          3D

 22 25  0  0  0  0  0  0  0  0999 V2000
   -4.1660   16.4420    0.8240 N   0  0  0  0  0  0  0  0  0  0  0  0
   -3.5250   15.2500    0.3310 C   0  0  2  0  0  0  0  0  0  0  0  0
   -1.9810   15.3830    0.5510 C   0  0  2  0  0  0  0  0  0  0  0  0
   -3.9320   14.8650   -1.0110 N   0  0  0  0  0  0  0  0  0  0  0  0
   -4.1280   14.2880    1.3430 C   0  0  0  0  0  0  0  0  0  0  0  0
   -2.9610   15.0710   -2.1190 C   0  0  0  0  0  0  0  0  0  0  0  0
   -1.0850   15.1740   -0.6670 C   0  0  2  0  0  0  0  0  0  0  0  0
   -1.4850   14.3980    1.5400 N   0  0  0  0  0  0  0  0  0  0  0  0
   -5.2840   13.6560    1.1130 C   0  0  0  0  0  0  0  0  0  0  0  0
   -5.2600   14.4690   -1.1550 C   0  0  0  0  0  0  0  0  0  0  0  0
   -1.5540   14.7080   -1.9230 N   0  0  0  0  0  0  0  0  0  0  0  0
   -0.0520   14.2200   -0.2580 N   0  0  0  0  0  0  0  0  0  0  0  0
   -0.1050   14.2500    1.1860 C   0  0  0  0  0  0  0  0  0  0  0  0
   -5.9560   13.8870   -0.1470 C   0  0  0  0  0  0  0  0  0  0  0  0
   -0.5100   14.9190   -2.9260 C   0  0  0  0  0  0  0  0  0  0  0  0
   -0.5120   13.9170   -3.9120 O   0  0  0  0  0  0  0  0  0  0  0  0
    0.6950   14.5240   -2.2760 O   0  0  0  0  0  0  0  0  0  0  0  0
   -0.2980   16.3260   -3.6060 C   0  0  2  0  0  0  0  0  0  0  0  0
   -1.4460   16.9400   -4.2230 O   0  0  0  0  0  0  0  0  0  0  0  0
    0.7310   16.3050   -4.7290 C   0  0  0  0  0  0  0  0  0  0  0  0
    0.5460   17.6830   -5.3090 C   0  0  0  0  0  0  0  0  0  0  0  0
   -0.9590   17.8880   -5.1850 C   0  0  0  0  0  0  0  0  0  0  0  0
  2  1  1  1
  2  3  1  0
  2  4  1  0
  2  5  1  0
  4  6  1  0
  3  7  1  0
  3  8  1  1
  5  9  2  0
  4 10  1  0
  6 11  1  0
  7 11  1  0
  7 12  1  1
  8 13  1  0
 12 13  1  0
  9 14  1  0
 10 14  2  0
 11 15  1  0
 15 16  1  0
 15 17  1  0
 18 15  1  6
 18 19  1  0
 18 20  1  0
 20 21  1  0
 19 22  1  0
 21 22  1  0
M  END
