mac-x0159-mac-x0361
     RDKit          3D

 20 22  0  0  0  0  0  0  0  0999 V2000
   -4.0570   15.8110    1.6740 N   0  0  0  0  0  0  0  0  0  0  0  0
   -3.3250   15.5710    0.4240 C   0  0  1  0  0  0  0  0  0  0  0  0
   -2.2120   14.5250    0.5050 C   0  0  1  0  0  0  0  0  0  0  0  0
   -4.2760   15.2260   -0.5830 N   0  0  0  0  0  0  0  0  0  0  0  0
   -5.6070   14.8460   -0.2310 C   0  0  0  0  0  0  0  0  0  0  0  0
   -3.6790   14.9310   -1.9140 C   0  0  0  0  0  0  0  0  0  0  0  0
   -1.5220   14.4520   -0.8640 C   0  0  1  0  0  0  0  0  0  0  0  0
   -1.1700   14.8920    1.4820 N   0  0  0  0  0  0  0  0  0  0  0  0
   -5.9380   14.7920    1.1100 N   0  0  0  0  0  0  0  0  0  0  0  0
   -6.5130   14.5760   -1.0150 O   0  0  0  0  0  0  0  0  0  0  0  0
   -2.1960   15.1560   -1.9370 N   0  0  0  0  0  0  0  0  0  0  0  0
   -0.2680   15.1370   -0.5950 N   0  0  0  0  0  0  0  0  0  0  0  0
    0.0580   14.7620    0.7480 C   0  0  0  0  0  0  0  0  0  0  0  0
   -1.5940   14.8270   -3.2660 C   0  0  0  0  0  0  0  0  0  0  0  0
   -0.8660   15.9650   -3.9610 C   0  0  0  0  0  0  0  0  0  0  0  0
    0.4820   16.2980   -3.8730 C   0  0  0  0  0  0  0  0  0  0  0  0
   -1.5910   16.7990   -4.8050 N   0  0  0  0  0  0  0  0  0  0  0  0
   -0.8180   17.7250   -5.3280 C   0  0  0  0  0  0  0  0  0  0  0  0
    0.8250   17.6670   -4.8530 S   0  0  0  0  0  0  0  0  0  0  0  0
   -1.2860   18.7720   -6.2730 C   0  0  0  0  0  0  0  0  0  0  0  0
  2  1  1  1
  2  3  1  0
  2  4  1  0
  4  5  1  0
  4  6  1  0
  3  7  1  0
  3  8  1  1
  5  9  1  0
  5 10  2  0
  6 11  1  0
  7 11  1  0
  7 12  1  1
  8 13  1  0
 12 13  1  0
 11 14  1  0
 14 15  1  0
 15 16  2  0
 15 17  1  0
 17 18  2  0
 16 19  1  0
 18 19  1  0
 18 20  1  0
M  END
