mac-x1493-mac-x0451
     RDKit          3D

 13 14  0  0  0  0  0  0  0  0999 V2000
   -1.2350   14.7250   -1.5990 O   0  0  0  0  0  0  0  0  0  0  0  0
   -2.3040   14.8820   -2.3990 C   0  0  0  0  0  0  0  0  0  0  0  0
   -2.1870   15.0410   -3.5970 O   0  0  0  0  0  0  0  0  0  0  0  0
   -3.5750   14.8380   -1.6560 C   0  0  0  0  0  0  0  0  0  0  0  0
   -3.6610   14.9580   -0.2710 C   0  0  0  0  0  0  0  0  0  0  0  0
   -4.7490   14.6630   -2.3640 C   0  0  0  0  0  0  0  0  0  0  0  0
   -4.9160   14.8830    0.3500 C   0  0  0  0  0  0  0  0  0  0  0  0
   -5.9760   14.5900   -1.7950 N   0  0  0  0  0  0  0  0  0  0  0  0
   -6.0580   14.6930   -0.4600 C   0  0  0  0  0  0  0  0  0  0  0  0
   -5.0580   14.9870    1.7390 C   0  0  0  0  0  0  0  0  0  0  0  0
   -7.3020   14.6090    0.1490 C   0  0  0  0  0  0  0  0  0  0  0  0
   -6.3230   14.8990    2.3250 C   0  0  0  0  0  0  0  0  0  0  0  0
   -7.4450   14.7060    1.5320 C   0  0  0  0  0  0  0  0  0  0  0  0
  1  2  1  0
  2  3  2  0
  2  4  1  0
  4  5  2  0
  4  6  1  0
  5  7  1  0
  6  8  2  0
  7  9  2  0
  8  9  1  0
  7 10  1  0
  9 11  1  0
 10 12  2  0
 11 13  2  0
 12 13  1  0
M  END
