mac-x0116-mac-x0394
     RDKit          3D

 29 32  0  0  0  0  0  0  0  0999 V2000
   -6.0130   14.7750    1.6760 C   0  0  0  0  0  0  0  0  0  0  0  0
   -4.6270   15.2260    1.7370 N   0  0  0  0  0  0  0  0  0  0  0  0
   -3.8570   15.0440    0.5820 C   0  0  0  0  0  0  0  0  0  0  0  0
   -6.3540   13.3250    1.6910 C   0  0  0  0  0  0  0  0  0  0  0  0
   -6.2430   12.6520    0.5060 O   0  0  0  0  0  0  0  0  0  0  0  0
   -6.7930   12.4690    2.6780 C   0  0  0  0  0  0  0  0  0  0  0  0
   -6.9640   11.2160    2.0680 C   0  0  0  0  0  0  0  0  0  0  0  0
   -6.6170   11.3750    0.7500 C   0  0  0  0  0  0  0  0  0  0  0  0
   -4.3950   15.2030   -0.6560 N   0  0  0  0  0  0  0  0  0  0  0  0
   -2.5080   14.6870    0.6550 C   0  0  0  0  0  0  0  0  0  0  0  0
   -3.6110   15.0050   -1.7390 C   0  0  0  0  0  0  0  0  0  0  0  0
   -1.8130   14.5060   -0.5340 C   0  0  0  0  0  0  0  0  0  0  0  0
   -1.7060   14.4670    1.7480 N   0  0  0  0  0  0  0  0  0  0  0  0
   -2.3050   14.6490   -1.7780 N   0  0  0  0  0  0  0  0  0  0  0  0
   -0.5530   14.1520   -0.1210 N   0  0  0  0  0  0  0  0  0  0  0  0
   -0.5500   14.1540    1.2460 C   0  0  0  0  0  0  0  0  0  0  0  0
    0.6460   13.8030   -0.8520 C   0  0  0  0  0  0  0  0  0  0  0  0
    0.6940   13.8970   -2.2770 N   0  0  0  0  0  0  0  0  0  0  0  0
    0.7990   12.9140   -3.0950 C   0  0  0  0  0  0  0  0  0  0  0  0
    0.8280   11.6300   -2.6630 O   0  0  0  0  0  0  0  0  0  0  0  0
    0.8950   13.1080   -4.5720 C   0  0  0  0  0  0  0  0  0  0  0  0
    0.2030   14.4080   -4.8270 C   0  0  0  0  0  0  0  0  0  0  0  0
   -1.1690   14.4170   -5.0480 C   0  0  0  0  0  0  0  0  0  0  0  0
    0.8960   15.6280   -4.8370 C   0  0  0  0  0  0  0  0  0  0  0  0
   -1.8480   15.6050   -5.2720 C   0  0  0  0  0  0  0  0  0  0  0  0
    0.1940   16.8130   -5.0660 C   0  0  0  0  0  0  0  0  0  0  0  0
    1.0100   18.3060   -5.0900 Cl  0  0  0  0  0  0  0  0  0  0  0  0
   -3.5370   15.5510   -5.5500 Cl  0  0  0  0  0  0  0  0  0  0  0  0
   -1.1740   16.8150   -5.2810 C   0  0  0  0  0  0  0  0  0  0  0  0
  1  2  1  0
  2  3  1  0
  1  4  1  0
  4  5  1  0
  4  6  2  0
  6  7  1  0
  5  8  1  0
  7  8  2  0
  3  9  2  0
  3 10  1  0
  9 11  1  0
 10 12  2  0
 10 13  1  0
 11 14  2  0
 12 14  1  0
 12 15  1  0
 13 16  2  0
 15 16  1  0
 15 17  1  0
 17 18  1  0
 18 19  2  3
 19 20  1  0
 19 21  1  0
 21 22  1  0
 22 23  2  0
 22 24  1  0
 23 25  1  0
 24 26  2  0
 26 27  1  0
 25 28  1  0
 25 29  2  0
 26 29  1  0
M  END
