mac-x0375-mac-x0341
     RDKit          3D

 26 28  0  0  0  0  0  0  0  0999 V2000
    2.3230   12.5950   -3.1930 O   0  0  0  0  0  0  0  0  0  0  0  0
    0.9420   12.5350   -3.4510 C   0  0  0  0  0  0  0  0  0  0  0  0
    0.5640   11.2180   -3.0520 O   0  0  0  0  0  0  0  0  0  0  0  0
    0.6840   12.7800   -4.9680 C   0  0  0  0  0  0  0  0  0  0  0  0
    0.2220   13.5470   -2.5300 C   0  0  0  0  0  0  0  0  0  0  0  0
    0.7880   11.5560   -5.7130 O   0  0  0  0  0  0  0  0  0  0  0  0
    0.1710   15.0130   -2.9840 C   0  0  0  0  0  0  0  0  0  0  0  0
   -1.2730   15.5190   -3.2130 C   0  0  0  0  0  0  0  0  0  0  0  0
   -0.3520   10.8340   -5.9700 C   0  0  0  0  0  0  0  0  0  0  0  0
   -0.3700    9.5970   -6.6230 C   0  0  0  0  0  0  0  0  0  0  0  0
   -1.5540   11.3910   -5.5400 C   0  0  0  0  0  0  0  0  0  0  0  0
   -2.2020   15.3700   -2.0170 C   0  0  0  0  0  0  0  0  0  0  0  0
   -1.5700    8.9250   -6.8360 C   0  0  0  0  0  0  0  0  0  0  0  0
   -2.7540   10.7180   -5.7610 C   0  0  0  0  0  0  0  0  0  0  0  0
   -1.6910   15.3460   -0.7100 C   0  0  0  0  0  0  0  0  0  0  0  0
   -3.5930   15.2560   -2.1970 C   0  0  0  0  0  0  0  0  0  0  0  0
   -2.7670    9.4870   -6.4040 C   0  0  0  0  0  0  0  0  0  0  0  0
   -4.4350   15.1230   -1.0820 C   0  0  0  0  0  0  0  0  0  0  0  0
   -2.5460   15.2110    0.3900 C   0  0  0  0  0  0  0  0  0  0  0  0
   -5.9020   14.9980   -1.2220 C   0  0  0  0  0  0  0  0  0  0  0  0
   -3.9240   15.1000    0.2080 C   0  0  0  0  0  0  0  0  0  0  0  0
   -6.4600   15.1090   -2.3020 O   0  0  0  0  0  0  0  0  0  0  0  0
   -6.5990   14.7460   -0.0600 N   0  0  0  0  0  0  0  0  0  0  0  0
   -4.7440   14.9690    1.3280 N   0  0  0  0  0  0  0  0  0  0  0  0
   -6.0130   14.7920    1.1690 C   0  0  0  0  0  0  0  0  0  0  0  0
   -6.7920   14.6540    2.2670 N   0  0  0  0  0  0  0  0  0  0  0  0
  2  1  1  0
  2  3  1  0
  2  4  1  0
  2  5  1  0
  4  6  1  0
  5  7  1  0
  7  8  1  0
  6  9  1  0
  9 10  2  0
  9 11  1  0
  8 12  1  0
 10 13  1  0
 11 14  2  0
 12 15  2  0
 12 16  1  0
 13 17  2  0
 14 17  1  0
 16 18  2  0
 15 19  1  0
 18 20  1  0
 18 21  1  0
 19 21  2  0
 20 22  2  0
 20 23  1  0
 21 24  1  0
 23 25  1  0
 24 25  2  0
 25 26  1  0
M  END
