mac-x0345-diamond-x0852_0_B
     RDKit          3D

 22 23  0  0  0  0  0  0  0  0999 V2000
   -7.3280   14.0490    1.0740 C   0  0  0  0  0  0  0  0  0  0  0  0
   -6.1610   14.4900    0.2600 C   0  0  0  0  0  0  0  0  0  0  0  0
   -6.4320   14.6510   -1.0580 N   0  0  0  0  0  0  0  0  0  0  0  0
   -4.8970   14.7020    0.8420 C   0  0  0  0  0  0  0  0  0  0  0  0
   -4.7500   14.4480    2.2010 O   0  0  0  0  0  0  0  0  0  0  0  0
   -3.8930   15.1310   -0.0230 C   0  0  0  0  0  0  0  0  0  0  0  0
   -5.4490   15.0350   -1.8610 C   0  0  0  0  0  0  0  0  0  0  0  0
   -5.7560   15.1450   -3.2130 N   0  0  0  0  0  0  0  0  0  0  0  0
   -4.9370   15.3250    3.3040 C   0  0  0  0  0  0  0  0  0  0  0  0
   -4.1710   15.2990   -1.3860 C   0  0  0  0  0  0  0  0  0  0  0  0
   -6.3320   15.1470    3.9130 C   0  0  0  0  0  0  0  0  0  0  0  0
   -6.5140   14.3420    5.2050 C   0  0  0  0  0  0  0  0  0  0  0  0
   -7.7910   14.7510    5.6990 O   0  0  0  0  0  0  0  0  0  0  0  0
   -8.5510   15.3000    4.7080 C   0  0  0  0  0  0  0  0  0  0  0  0
   -8.5700   14.7280    3.4400 C   0  0  0  0  0  0  0  0  0  0  0  0
   -9.3210   16.4620    4.9460 C   0  0  0  0  0  0  0  0  0  0  0  0
   -9.3900   17.1190    6.2210 C   0  0  0  0  0  0  0  0  0  0  0  0
   -9.3200   15.2860    2.4130 C   0  0  0  0  0  0  0  0  0  0  0  0
  -10.0730   17.0190    3.9010 C   0  0  0  0  0  0  0  0  0  0  0  0
   -9.5370   17.6440    7.2530 N   0  0  0  0  0  0  0  0  0  0  0  0
  -10.0620   16.4250    2.6420 C   0  0  0  0  0  0  0  0  0  0  0  0
  -11.0620   17.1580    1.2190 Br  0  0  0  0  0  0  0  0  0  0  0  0
  1  2  1  0
  2  3  2  0
  2  4  1  0
  4  5  1  0
  4  6  2  0
  3  7  1  0
  7  8  1  0
  5  9  1  0
  6 10  1  0
  7 10  2  0
  9 11  1  0
 11 12  1  0
 12 13  1  0
 13 14  1  0
 14 15  2  0
 14 16  1  0
 16 17  1  0
 15 18  1  0
 16 19  2  0
 17 20  3  0
 18 21  2  0
 19 21  1  0
 21 22  1  0
M  END
