mac-x0576-diamond-x0933_0_A
     RDKit          3D

 13 14  0  0  0  0  0  0  0  0999 V2000
   -0.0440   13.8770    1.4940 N   0  0  0  0  0  0  0  0  0  0  0  0
   -0.5930   14.9220    0.7290 C   0  0  2  0  0  0  0  0  0  0  0  0
   -1.9000   15.1570    1.2650 N   0  0  0  0  0  0  0  0  0  0  0  0
   -0.6220   14.4260   -0.5850 N   0  0  0  0  0  0  0  0  0  0  0  0
   -1.6580   14.6510   -1.4420 C   0  0  0  0  0  0  0  0  0  0  0  0
   -2.9840   14.4240    0.6740 C   0  0  2  0  0  0  0  0  0  0  0  0
   -1.4240   14.9550   -2.6080 O   0  0  0  0  0  0  0  0  0  0  0  0
   -3.0500   14.5050   -0.8570 C   0  0  1  0  0  0  0  0  0  0  0  0
   -4.1850   14.8490    1.3420 N   0  0  0  0  0  0  0  0  0  0  0  0
   -5.3680   15.0090    0.6620 C   0  0  0  0  0  0  0  0  0  0  0  0
   -3.9600   15.5660   -1.3440 N   0  0  0  0  0  0  0  0  0  0  0  0
   -6.4290   14.8200    1.2510 O   0  0  0  0  0  0  0  0  0  0  0  0
   -5.3220   15.4220   -0.8120 C   0  0  0  0  0  0  0  0  0  0  0  0
  2  1  1  1
  2  3  1  0
  2  4  1  0
  4  5  1  0
  6  3  1  1
  5  7  2  0
  5  8  1  0
  6  8  1  0
  6  9  1  0
  9 10  1  0
  8 11  1  1
 10 12  2  0
 10 13  1  0
 11 13  1  0
M  END
