mac-x0337-diamond-x0766_0_A
     RDKit          3D

 24 26  0  0  0  0  0  0  0  0999 V2000
   -5.6740    9.0250   -2.0930 C   0  0  0  0  0  0  0  0  0  0  0  0
   -5.3700   10.4670   -1.8230 C   0  0  0  0  0  0  0  0  0  0  0  0
   -6.2070   11.2260   -0.9950 C   0  0  0  0  0  0  0  0  0  0  0  0
   -4.2440   11.0670   -2.4020 C   0  0  0  0  0  0  0  0  0  0  0  0
   -3.9710   12.4110   -2.1670 C   0  0  0  0  0  0  0  0  0  0  0  0
   -5.9400   12.5700   -0.7560 C   0  0  0  0  0  0  0  0  0  0  0  0
   -4.8280   13.1540   -1.3500 C   0  0  0  0  0  0  0  0  0  0  0  0
   -4.5100   14.8580   -1.0760 S   0  0  2  0  0  0  0  0  0  0  0  0
   -3.5430   15.2020   -2.1920 N   0  0  0  0  0  0  0  0  0  0  0  0
   -4.3300   15.0980    0.3370 O   0  0  0  0  0  0  0  0  0  0  0  0
   -5.8820   15.7660   -1.3800 N   0  0  0  0  0  0  0  0  0  0  0  0
   -2.2960   14.8170   -1.6170 C   0  0  0  0  0  0  0  0  0  0  0  0
   -1.0560   14.5320   -2.1580 C   0  0  0  0  0  0  0  0  0  0  0  0
   -2.3700   14.6920    0.0670 S   0  0  0  0  0  0  0  0  0  0  0  0
   -0.6110   14.5310   -3.6040 C   0  0  2  0  0  0  0  0  0  0  0  0
   -0.1700   14.2220   -1.0660 C   0  0  0  0  0  0  0  0  0  0  0  0
   -0.7510   14.2730    0.1710 C   0  0  0  0  0  0  0  0  0  0  0  0
    0.0500   13.2030   -4.0700 C   0  0  2  0  0  0  0  0  0  0  0  0
    0.4830   15.5940   -3.7260 C   0  0  0  0  0  0  0  0  0  0  0  0
    0.5290   12.3380   -2.9190 C   0  0  0  0  0  0  0  0  0  0  0  0
    1.2610   13.5960   -4.9270 C   0  0  0  0  0  0  0  0  0  0  0  0
    1.5370   15.0730   -4.6780 C   0  0  0  0  0  0  0  0  0  0  0  0
    1.3820   12.5970   -2.0960 O   0  0  0  0  0  0  0  0  0  0  0  0
   -0.1010   11.1450   -2.8610 O   0  0  0  0  0  0  0  0  0  0  0  0
  1  2  1  0
  2  3  2  0
  2  4  1  0
  4  5  2  0
  3  6  1  0
  5  7  1  0
  6  7  2  0
  7  8  1  0
  8  9  2  0
  8 10  2  0
  8 11  1  6
  9 12  1  0
 12 13  2  0
 12 14  1  0
 15 13  1  1
 13 16  1  0
 14 17  1  0
 16 17  2  0
 15 18  1  0
 15 19  1  0
 18 20  1  1
 18 21  1  0
 19 22  1  0
 21 22  1  0
 20 23  2  0
 20 24  1  0
M  END
