mac-x0348-mac-x0564
     RDKit          3D

 28 32  0  0  0  0  0  0  0  0999 V2000
    0.0470   19.0570   -6.6220 C   0  0  0  0  0  0  0  0  0  0  0  0
   -0.1120   17.8830   -5.8180 N   0  0  0  0  0  0  0  0  0  0  0  0
    0.8660   17.3860   -5.0580 C   0  0  0  0  0  0  0  0  0  0  0  0
   -1.2230   17.1330   -5.7100 C   0  0  0  0  0  0  0  0  0  0  0  0
    0.4670   16.2460   -4.4000 C   0  0  0  0  0  0  0  0  0  0  0  0
   -0.9210   16.0780   -4.8310 C   0  0  0  0  0  0  0  0  0  0  0  0
   -2.4660   17.3100   -6.3240 C   0  0  0  0  0  0  0  0  0  0  0  0
    1.4370   15.5080   -3.4580 C   0  0  0  0  0  0  0  0  0  0  0  0
   -1.9580   15.1730   -4.5870 C   0  0  0  0  0  0  0  0  0  0  0  0
   -3.4530   16.3780   -6.0490 C   0  0  0  0  0  0  0  0  0  0  0  0
    1.9210   14.0480   -3.5160 C   0  0  0  0  0  0  0  0  0  0  0  0
   -3.2110   15.3300   -5.1990 C   0  0  0  0  0  0  0  0  0  0  0  0
    0.8930   13.4420   -2.6990 C   0  0  0  0  0  0  0  0  0  0  0  0
    0.5270   12.9240   -1.6050 N   0  0  0  0  0  0  0  0  0  0  0  0
   -0.1610   13.4520   -3.4930 O   0  0  0  0  0  0  0  0  0  0  0  0
   -0.5920   13.0350   -2.3430 C   0  0  0  0  0  0  0  0  0  0  0  0
   -1.7650   13.6870   -2.0010 C   0  0  0  0  0  0  0  0  0  0  0  0
   -0.4460   12.4800   -3.5610 N   0  0  0  0  0  0  0  0  0  0  0  0
   -2.7330   13.7250   -2.9880 C   0  0  0  0  0  0  0  0  0  0  0  0
   -1.4470   12.5830   -4.4260 C   0  0  0  0  0  0  0  0  0  0  0  0
   -2.1970   14.3370   -0.8700 O   0  0  0  0  0  0  0  0  0  0  0  0
   -2.6140   13.1800   -4.2240 N   0  0  0  0  0  0  0  0  0  0  0  0
   -3.4670   14.7720   -1.1760 C   0  0  0  0  0  0  0  0  0  0  0  0
   -3.8150   14.4130   -2.4720 C   0  0  0  0  0  0  0  0  0  0  0  0
   -5.0570   14.7490   -3.0060 C   0  0  0  0  0  0  0  0  0  0  0  0
   -4.3360   15.4740   -0.3570 C   0  0  0  0  0  0  0  0  0  0  0  0
   -5.9320   15.4390   -2.2110 C   0  0  0  0  0  0  0  0  0  0  0  0
   -5.5740   15.7840   -0.9320 C   0  0  0  0  0  0  0  0  0  0  0  0
  1  2  1  0
  2  3  1  0
  2  4  1  0
  3  5  2  0
  4  6  2  0
  5  6  1  0
  4  7  1  0
  5  8  1  0
  6  9  1  0
  7 10  2  0
  8 11  1  0
  9 12  2  0
 10 12  1  0
 11 13  1  0
 13 14  2  3
 13 15  1  0
 14 16  1  0
 16 17  1  0
 16 18  2  0
 17 19  2  0
 18 20  1  0
 17 21  1  0
 19 22  1  0
 20 22  2  0
 21 23  1  0
 19 24  1  0
 23 24  2  0
 24 25  1  0
 23 26  1  0
 25 27  2  0
 26 28  2  0
 27 28  1  0
M  END
