mac-x0305-mac-x0116
     RDKit          3D

 20 22  0  0  0  0  0  0  0  0999 V2000
   -0.6310   12.5840   -1.0560 O   0  0  0  0  0  0  0  0  0  0  0  0
   -0.4970   13.8120   -1.6350 C   0  0  0  0  0  0  0  0  0  0  0  0
    0.3000   13.9380   -2.5550 O   0  0  0  0  0  0  0  0  0  0  0  0
   -1.4150   14.9240   -1.0400 C   0  0  2  0  0  0  0  0  0  0  0  0
   -2.0900   14.6190    0.3470 C   0  0  2  0  0  0  0  0  0  0  0  0
   -2.3710   15.2990   -2.0980 N   0  0  0  0  0  0  0  0  0  0  0  0
   -0.4840   15.9300   -0.5370 N   0  0  0  0  0  0  0  0  0  0  0  0
   -2.3290   13.2570    0.4570 O   0  0  0  0  0  0  0  0  0  0  0  0
   -3.4270   15.4130    0.6540 C   0  0  2  0  0  0  0  0  0  0  0  0
   -3.6810   15.5940   -1.8280 C   0  0  0  0  0  0  0  0  0  0  0  0
   -1.0390   14.8020    1.3540 N   0  0  0  0  0  0  0  0  0  0  0  0
    0.0930   15.1740    0.5540 C   0  0  0  0  0  0  0  0  0  0  0  0
   -4.2280   14.6820    1.6670 N   0  0  0  0  0  0  0  0  0  0  0  0
   -4.2110   15.6630   -0.6070 C   0  0  0  0  0  0  0  0  0  0  0  0
   -5.6770   14.6380    1.5770 C   0  0  0  0  0  0  0  0  0  0  0  0
   -6.2330   13.2580    1.6180 C   0  0  0  0  0  0  0  0  0  0  0  0
   -6.2700   12.5820    0.4320 O   0  0  0  0  0  0  0  0  0  0  0  0
   -6.7450   12.4680    2.6240 C   0  0  0  0  0  0  0  0  0  0  0  0
   -7.1160   11.2500    2.0290 C   0  0  0  0  0  0  0  0  0  0  0  0
   -6.8070   11.3660    0.6960 C   0  0  0  0  0  0  0  0  0  0  0  0
  1  2  1  0
  2  3  2  0
  4  2  1  6
  4  5  1  0
  4  6  1  0
  4  7  1  0
  5  8  1  6
  5  9  1  0
  6 10  1  0
  5 11  1  0
  7 12  1  0
 11 12  1  0
  9 13  1  1
  9 14  1  0
 10 14  2  0
 13 15  1  0
 15 16  1  0
 16 17  1  0
 16 18  2  0
 18 19  1  0
 17 20  1  0
 19 20  2  0
M  END
