mac-x0496-diamond-x0895_1_A
     RDKit          3D

 20 21  0  0  0  0  0  0  0  0999 V2000
   -9.7010   17.6690    4.7070 C   0  0  0  0  0  0  0  0  0  0  0  0
   -9.6490   16.7070    3.5830 C   0  0  0  0  0  0  0  0  0  0  0  0
  -10.3790   16.8050    2.4570 N   0  0  0  0  0  0  0  0  0  0  0  0
   -8.8300   15.6260    3.6190 N   0  0  0  0  0  0  0  0  0  0  0  0
  -10.0080   15.6990    1.7100 O   0  0  0  0  0  0  0  0  0  0  0  0
   -9.0800   15.0530    2.4650 C   0  0  0  0  0  0  0  0  0  0  0  0
   -8.4770   13.8260    1.9100 C   0  0  0  0  0  0  0  0  0  0  0  0
   -7.0650   14.1130    1.7050 N   0  0  0  0  0  0  0  0  0  0  0  0
   -6.6060   14.5340    0.4740 C   0  0  0  0  0  0  0  0  0  0  0  0
   -7.3650   14.9270   -0.4080 O   0  0  0  0  0  0  0  0  0  0  0  0
   -5.0900   14.4630    0.2700 C   0  0  2  0  0  0  0  0  0  0  0  0
   -4.2870   15.1550    1.3800 C   0  0  0  0  0  0  0  0  0  0  0  0
   -4.6620   14.9990   -1.1070 C   0  0  0  0  0  0  0  0  0  0  0  0
   -2.7930   15.1150    1.0890 C   0  0  0  0  0  0  0  0  0  0  0  0
   -3.1570   14.8010   -1.3200 C   0  0  1  0  0  0  0  0  0  0  0  0
   -2.6510   15.1370   -2.7060 C   0  0  0  0  0  0  0  0  0  0  0  0
   -1.9350   14.7700    1.9040 O   0  0  0  0  0  0  0  0  0  0  0  0
   -2.3460   15.5340   -0.2810 C   0  0  0  0  0  0  0  0  0  0  0  0
   -1.4730   15.2050   -3.0030 O   0  0  0  0  0  0  0  0  0  0  0  0
   -3.6230   15.3590   -3.6150 O   0  0  0  0  0  0  0  0  0  0  0  0
  1  2  1  0
  2  3  2  0
  2  4  1  0
  3  5  1  0
  4  6  2  0
  5  6  1  0
  6  7  1  0
  7  8  1  0
  8  9  1  0
  9 10  2  0
 11  9  1  1
 11 12  1  0
 11 13  1  0
 12 14  1  0
 13 15  1  0
 15 16  1  6
 14 17  2  0
 14 18  1  0
 15 18  1  0
 16 19  2  0
 16 20  1  0
M  END
