mac-x0277-mac-x0321
     RDKit          3D

 23 24  0  0  0  0  0  0  0  0999 V2000
   -1.3070   18.4660   -5.2340 Cl  0  0  0  0  0  0  0  0  0  0  0  0
   -0.5720   16.9230   -4.9980 C   0  0  0  0  0  0  0  0  0  0  0  0
   -1.2900   15.7330   -5.1320 C   0  0  0  0  0  0  0  0  0  0  0  0
    0.7850   16.8790   -4.6610 C   0  0  0  0  0  0  0  0  0  0  0  0
   -2.7620   15.6240   -5.4700 C   0  0  0  0  0  0  0  0  0  0  0  0
   -0.6090   14.5090   -4.9300 C   0  0  0  0  0  0  0  0  0  0  0  0
    1.4350   15.6520   -4.4580 C   0  0  0  0  0  0  0  0  0  0  0  0
   -3.1930   14.3670   -4.7500 C   0  0  0  0  0  0  0  0  0  0  0  0
    0.7420   14.4500   -4.5940 C   0  0  0  0  0  0  0  0  0  0  0  0
    1.4320   13.1180   -4.3820 C   0  0  0  0  0  0  0  0  0  0  0  0
   -2.0260   14.1380   -3.9000 N   0  0  0  0  0  0  0  0  0  0  0  0
    1.1110   12.4400   -3.0660 C   0  0  0  0  0  0  0  0  0  0  0  0
   -2.0650   14.3570   -2.6540 C   0  0  0  0  0  0  0  0  0  0  0  0
    0.4240   11.2890   -3.2430 O   0  0  0  0  0  0  0  0  0  0  0  0
    1.3940   12.8070   -1.9410 O   0  0  0  0  0  0  0  0  0  0  0  0
   -1.0030   14.2080   -1.8410 O   0  0  0  0  0  0  0  0  0  0  0  0
   -3.2800   14.7790   -1.9750 C   0  0  0  0  0  0  0  0  0  0  0  0
   -3.2710   14.9610   -0.6090 C   0  0  0  0  0  0  0  0  0  0  0  0
   -4.4370   14.9830   -2.7200 C   0  0  0  0  0  0  0  0  0  0  0  0
   -4.4370   15.3420    0.0100 C   0  0  0  0  0  0  0  0  0  0  0  0
   -5.6070   15.3650   -2.0890 C   0  0  0  0  0  0  0  0  0  0  0  0
   -4.4040   15.5610    1.6990 Cl  0  0  0  0  0  0  0  0  0  0  0  0
   -5.6060   15.5410   -0.7210 C   0  0  0  0  0  0  0  0  0  0  0  0
  1  2  1  0
  2  3  2  0
  2  4  1  0
  3  5  1  0
  3  6  1  0
  4  7  2  0
  5  8  1  0
  6  9  2  0
  7  9  1  0
  9 10  1  0
  8 11  1  0
 10 12  1  0
 11 13  2  3
 12 14  1  0
 12 15  2  0
 13 16  1  0
 13 17  1  0
 17 18  2  0
 17 19  1  0
 18 20  1  0
 19 21  2  0
 20 22  1  0
 20 23  2  0
 21 23  1  0
M  END
