mac-x1493-diamond-x0282_0_A
     RDKit          3D

 19 21  0  0  0  0  0  0  0  0999 V2000
   -1.1950   14.8120   -2.8540 O   0  0  0  0  0  0  0  0  0  0  0  0
   -2.3570   15.0680   -3.5080 C   0  0  0  0  0  0  0  0  0  0  0  0
   -2.4260   15.3320   -4.6770 O   0  0  0  0  0  0  0  0  0  0  0  0
   -3.5080   14.9870   -2.6190 C   0  0  0  0  0  0  0  0  0  0  0  0
   -3.2340   14.9250   -1.3230 C   0  0  0  0  0  0  0  0  0  0  0  0
   -4.8410   14.9610   -3.0150 C   0  0  0  0  0  0  0  0  0  0  0  0
   -4.2080   14.8300   -0.4100 C   0  0  0  0  0  0  0  0  0  0  0  0
   -5.8820   14.8770   -2.1310 N   0  0  0  0  0  0  0  0  0  0  0  0
   -5.5550   14.8100   -0.8080 C   0  0  0  0  0  0  0  0  0  0  0  0
   -3.6760   14.7240    0.9420 C   0  0  1  0  0  0  0  0  0  0  0  0
   -6.7040   14.7090    0.1890 C   0  0  2  0  0  0  0  0  0  0  0  0
   -4.8670   14.8170    1.9100 C   0  0  0  0  0  0  0  0  0  0  0  0
   -3.0040   13.4280    0.7830 N   0  0  0  0  0  0  0  0  0  0  0  0
   -2.6310   15.6950    1.2390 N   0  0  0  0  0  0  0  0  0  0  0  0
   -6.2010   14.7960    1.5940 C   0  0  0  0  0  0  0  0  0  0  0  0
   -1.8060   13.5150   -0.1290 C   0  0  0  0  0  0  0  0  0  0  0  0
   -1.2610   15.5140    0.9580 C   0  0  0  0  0  0  0  0  0  0  0  0
   -7.5100   13.5440    0.0240 O   0  0  0  0  0  0  0  0  0  0  0  0
   -0.8020   14.4820    0.3110 C   0  0  0  0  0  0  0  0  0  0  0  0
  1  2  1  0
  2  3  2  0
  2  4  1  0
  4  5  2  0
  4  6  1  0
  5  7  1  0
  6  8  2  0
  7  9  2  0
  8  9  1  0
  7 10  1  0
  9 11  1  0
 10 12  1  1
 10 13  1  0
 10 14  1  0
 11 15  1  0
 12 15  2  0
 13 16  1  0
 14 17  1  0
 11 18  1  1
 16 19  1  0
 17 19  2  0
M  END
