mac-x0387-diamond-x0438_0_A
     RDKit          3D

 23 26  0  0  0  0  0  0  0  0999 V2000
   -3.6430   15.1290    1.7780 N   0  0  0  0  0  0  0  0  0  0  0  0
   -2.4760   14.9620    1.0610 C   0  0  0  0  0  0  0  0  0  0  0  0
   -1.3760   15.0150    1.7940 N   0  0  0  0  0  0  0  0  0  0  0  0
   -2.4610   14.7580   -0.3030 C   0  0  0  0  0  0  0  0  0  0  0  0
   -1.2000   14.6380   -0.9210 C   0  0  0  0  0  0  0  0  0  0  0  0
   -0.1930   14.8790    1.1830 C   0  0  0  0  0  0  0  0  0  0  0  0
   -3.7410   14.6270   -1.1000 C   0  0  2  0  0  0  0  0  0  0  0  0
   -0.0430   14.6990   -0.1630 C   0  0  0  0  0  0  0  0  0  0  0  0
   -1.0640   14.4430   -2.3590 C   0  0  0  0  0  0  0  0  0  0  0  0
   -3.5300   14.2280   -2.5920 C   0  0  0  0  0  0  0  0  0  0  0  0
   -4.9790   15.6650   -1.1740 C   0  0  0  0  0  0  0  0  0  0  0  0
   -4.2630   13.4290   -0.1620 C   0  0  0  0  0  0  0  0  0  0  0  0
   -2.1340   14.2600   -3.1320 C   0  0  0  0  0  0  0  0  0  0  0  0
   -5.6240   13.8220    0.1730 C   0  0  0  0  0  0  0  0  0  0  0  0
   -6.0040   14.9780   -0.3850 C   0  0  0  0  0  0  0  0  0  0  0  0
   -7.2940   15.1650   -0.0230 N   0  0  0  0  0  0  0  0  0  0  0  0
   -6.5970   13.2720    0.9180 N   0  0  0  0  0  0  0  0  0  0  0  0
   -7.6140   14.0930    0.7930 C   0  0  0  0  0  0  0  0  0  0  0  0
   -8.9420   13.9040    1.4310 C   0  0  0  0  0  0  0  0  0  0  0  0
   -9.3870   15.2620    2.5060 S   0  0  0  0  0  0  0  0  0  0  0  0
   -8.0870   15.3880    3.7220 C   0  0  0  0  0  0  0  0  0  0  0  0
  -10.6090   14.8790    3.1950 O   0  0  0  0  0  0  0  0  0  0  0  0
   -9.3950   16.4690    1.7060 O   0  0  0  0  0  0  0  0  0  0  0  0
  1  2  1  0
  2  3  2  0
  2  4  1  0
  4  5  2  0
  3  6  1  0
  4  7  1  0
  5  8  1  0
  6  8  2  0
  5  9  1  0
  7 10  1  6
  7 11  1  0
  7 12  1  0
  9 13  2  0
 10 13  1  0
 12 14  1  0
 11 15  1  0
 14 15  2  0
 15 16  1  0
 14 17  1  0
 16 18  1  0
 17 18  2  0
 18 19  1  0
 20 19  1  0
 20 21  1  0
 20 22  2  0
 20 23  2  0
M  END
