mac-x0347-mac-x0398
     RDKit          3D

 19 20  0  0  0  0  0  0  0  0999 V2000
    1.7740   14.4960   -3.6290 O   0  0  0  0  0  0  0  0  0  0  0  0
    1.0070   14.1450   -2.5820 C   0  0  0  0  0  0  0  0  0  0  0  0
    1.4420   13.5400   -1.6240 O   0  0  0  0  0  0  0  0  0  0  0  0
   -0.3990   14.5650   -2.6970 C   0  0  0  0  0  0  0  0  0  0  0  0
   -1.3070   14.5150   -1.6390 C   0  0  0  0  0  0  0  0  0  0  0  0
   -0.8280   15.0380   -3.9330 C   0  0  0  0  0  0  0  0  0  0  0  0
   -2.6230   14.9420   -1.8520 C   0  0  0  0  0  0  0  0  0  0  0  0
   -2.0900   15.4580   -4.1770 N   0  0  0  0  0  0  0  0  0  0  0  0
   -2.9440   15.3980   -3.1380 C   0  0  0  0  0  0  0  0  0  0  0  0
   -3.6550   14.9340   -0.8290 C   0  0  0  0  0  0  0  0  0  0  0  0
   -3.4220   15.2680    0.5170 C   0  0  0  0  0  0  0  0  0  0  0  0
   -4.9310   14.5810   -1.2120 C   0  0  0  0  0  0  0  0  0  0  0  0
   -5.0980   14.2520   -2.6330 C   0  0  0  0  0  0  0  0  0  0  0  0
   -4.4680   15.2350    1.4370 C   0  0  0  0  0  0  0  0  0  0  0  0
   -5.9870   14.5420   -0.3130 C   0  0  0  0  0  0  0  0  0  0  0  0
   -6.0760   14.4530   -3.3120 O   0  0  0  0  0  0  0  0  0  0  0  0
   -3.9780   13.6840   -3.1100 O   0  0  0  0  0  0  0  0  0  0  0  0
   -7.2240   14.1890   -0.7640 O   0  0  0  0  0  0  0  0  0  0  0  0
   -5.7570   14.8670    1.0270 C   0  0  0  0  0  0  0  0  0  0  0  0
  1  2  1  0
  2  3  2  0
  2  4  1  0
  4  5  2  0
  4  6  1  0
  5  7  1  0
  6  8  2  0
  7  9  2  0
  8  9  1  0
  7 10  1  0
 10 11  2  0
 10 12  1  0
 12 13  1  0
 11 14  1  0
 12 15  2  0
 13 16  2  0
 13 17  1  0
 15 18  1  0
 14 19  2  0
 15 19  1  0
M  END
