mac-x0306-mac-x0385
     RDKit          3D

 20 22  0  0  0  0  0  0  0  0999 V2000
   -4.9610   15.9840   -0.4840 C   0  0  0  0  0  0  0  0  0  0  0  0
   -3.6490   15.5670    0.0210 C   0  0  0  0  0  0  0  0  0  0  0  0
   -2.7020   15.1620   -0.9100 C   0  0  0  0  0  0  0  0  0  0  0  0
   -4.9770   14.8530   -1.2630 C   0  0  0  0  0  0  0  0  0  0  0  0
   -4.0880   14.7410   -2.3030 C   0  0  0  0  0  0  0  0  0  0  0  0
   -5.8500   13.9100   -0.8940 C   0  0  0  0  0  0  0  0  0  0  0  0
   -3.2930   15.5060    1.3210 C   0  0  0  0  0  0  0  0  0  0  0  0
   -4.2020   15.8780    2.3050 N   0  0  0  0  0  0  0  0  0  0  0  0
   -6.8040   14.1520    0.2180 C   0  0  0  0  0  0  0  0  0  0  0  0
   -3.9860   13.6660   -3.0320 N   0  0  0  0  0  0  0  0  0  0  0  0
   -5.7650   12.7650   -1.6220 C   0  0  0  0  0  0  0  0  0  0  0  0
   -2.0810   15.0860    1.6820 N   0  0  0  0  0  0  0  0  0  0  0  0
   -1.4830   14.7470   -0.5980 N   0  0  0  0  0  0  0  0  0  0  0  0
   -6.5620   14.1870    1.5930 N   0  0  0  0  0  0  0  0  0  0  0  0
   -8.0850   14.3930    0.0110 N   0  0  0  0  0  0  0  0  0  0  0  0
   -4.8270   12.6980   -2.6570 C   0  0  0  0  0  0  0  0  0  0  0  0
   -1.2420   14.7400    0.7100 C   0  0  0  0  0  0  0  0  0  0  0  0
    0.0740   14.3140    1.1300 C   0  0  0  0  0  0  0  0  0  0  0  0
   -8.6680   14.5810    1.2290 C   0  0  0  0  0  0  0  0  0  0  0  0
   -7.7400   14.4580    2.2260 C   0  0  0  0  0  0  0  0  0  0  0  0
  1  2  1  0
  2  3  2  0
  1  4  1  0
  4  5  2  0
  4  6  1  0
  2  7  1  0
  7  8  1  0
  6  9  1  0
  5 10  1  0
  6 11  2  0
  7 12  2  0
  3 13  1  0
  9 14  1  0
  9 15  2  0
 10 16  2  0
 11 16  1  0
 12 17  1  0
 13 17  2  0
 17 18  1  0
 15 19  1  0
 14 20  1  0
 19 20  2  0
M  END
