mac-x0161-mac-x0565
     RDKit          3D

 29 33  0  0  0  0  0  0  0  0999 V2000
   -4.9150   14.3750    0.3150 N   0  0  0  0  0  0  0  0  0  0  0  0
   -5.7080   14.7810   -0.7480 C   0  0  0  0  0  0  0  0  0  0  0  0
   -6.8990   15.0660   -0.6510 O   0  0  0  0  0  0  0  0  0  0  0  0
   -3.7880   15.1450    0.7570 C   0  0  2  0  0  0  0  0  0  0  0  0
   -3.4680   16.0070   -0.3510 N   0  0  0  0  0  0  0  0  0  0  0  0
   -2.5320   14.3460    1.1330 C   0  0  1  0  0  0  0  0  0  0  0  0
   -5.0130   14.8490   -2.0690 C   0  0  0  0  0  0  0  0  0  0  0  0
   -2.1190   15.8460   -0.9050 C   0  0  0  0  0  0  0  0  0  0  0  0
   -1.9680   13.6670   -0.1160 C   0  0  1  0  0  0  0  0  0  0  0  0
   -1.3980   15.1660    1.5280 N   0  0  0  0  0  0  0  0  0  0  0  0
   -3.8440   15.6040   -2.1290 C   0  0  0  0  0  0  0  0  0  0  0  0
   -5.4790   14.1930   -3.2290 C   0  0  0  0  0  0  0  0  0  0  0  0
   -1.8790   14.4880   -1.2850 N   0  0  0  0  0  0  0  0  0  0  0  0
   -0.5890   13.3940    0.2470 N   0  0  0  0  0  0  0  0  0  0  0  0
   -0.2350   14.3450    1.2850 C   0  0  0  0  0  0  0  0  0  0  0  0
   -3.1670   15.6830   -3.3250 C   0  0  0  0  0  0  0  0  0  0  0  0
   -4.7680   14.2920   -4.4400 C   0  0  0  0  0  0  0  0  0  0  0  0
   -0.6100   14.2750   -2.0060 C   0  0  0  0  0  0  0  0  0  0  0  0
   -3.6120   15.0470   -4.4490 C   0  0  0  0  0  0  0  0  0  0  0  0
   -2.0130   16.3730   -3.5580 O   0  0  0  0  0  0  0  0  0  0  0  0
   -0.4370   12.8910   -2.5200 C   0  0  0  0  0  0  0  0  0  0  0  0
   -2.7800   15.2640   -5.5090 O   0  0  0  0  0  0  0  0  0  0  0  0
   -1.6250   15.7410   -4.7870 C   0  0  0  0  0  0  0  0  0  0  0  0
   -0.5080   12.3360   -3.7750 C   0  0  0  0  0  0  0  0  0  0  0  0
   -0.1490   11.9040   -1.6000 O   0  0  0  0  0  0  0  0  0  0  0  0
   -0.0440   10.6890   -2.2650 N   0  0  0  0  0  0  0  0  0  0  0  0
   -0.2580   10.9800   -3.5580 C   0  0  0  0  0  0  0  0  0  0  0  0
   -0.2320   10.0360   -4.5230 O   0  0  0  0  0  0  0  0  0  0  0  0
   -1.3370   10.0720   -5.4200 C   0  0  0  0  0  0  0  0  0  0  0  0
  1  2  1  0
  2  3  2  0
  4  1  1  6
  4  5  1  0
  4  6  1  0
  2  7  1  0
  5  8  1  0
  6  9  1  0
  6 10  1  6
  7 11  2  0
  7 12  1  0
  8 13  1  0
  9 13  1  0
  9 14  1  1
 10 15  1  0
 14 15  1  0
 11 16  1  0
 12 17  2  0
 13 18  1  0
 16 19  2  0
 17 19  1  0
 16 20  1  0
 18 21  1  0
 19 22  1  0
 20 23  1  0
 22 23  1  0
 21 24  2  0
 21 25  1  0
 25 26  1  0
 24 27  1  0
 26 27  2  0
 27 28  1  0
 28 29  1  0
M  END
