mac-x0402-diamond-x0587_0_A
     RDKit          3D

 17 18  0  0  0  0  0  0  0  0999 V2000
   -1.1410   14.1850   -2.5790 Cl  0  0  0  0  0  0  0  0  0  0  0  0
   -2.5280   14.3170   -1.5100 C   0  0  0  0  0  0  0  0  0  0  0  0
   -3.4700   13.2100   -1.4620 C   0  0  0  0  0  0  0  0  0  0  0  0
   -2.7430   15.3680   -0.7640 C   0  0  0  0  0  0  0  0  0  0  0  0
   -3.9410   15.5300    0.0760 C   0  0  1  0  0  0  0  0  0  0  0  0
   -4.6330   13.4180   -0.9430 C   0  0  0  0  0  0  0  0  0  0  0  0
   -5.0190   14.7330   -0.4690 C   0  0  2  0  0  0  0  0  0  0  0  0
   -4.0260   14.6210    1.6580 S   0  0  0  0  0  0  0  0  0  0  0  0
   -5.1430   15.1550   -1.9090 C   0  0  0  0  0  0  0  0  0  0  0  0
   -5.8400   14.7290    1.5980 C   0  0  0  0  0  0  0  0  0  0  0  0
   -6.0920   14.7690    0.3150 N   0  0  0  0  0  0  0  0  0  0  0  0
   -6.8790   14.7930    2.5060 N   0  0  0  0  0  0  0  0  0  0  0  0
   -4.0020   15.8820   -2.1920 F   0  0  0  0  0  0  0  0  0  0  0  0
   -5.2660   14.0350   -2.6780 F   0  0  0  0  0  0  0  0  0  0  0  0
   -6.2300   15.9440   -2.0480 F   0  0  0  0  0  0  0  0  0  0  0  0
   -7.9160   14.8710    3.3280 C   0  0  0  0  0  0  0  0  0  0  0  0
   -9.1150   15.1890    3.1200 O   0  0  0  0  0  0  0  0  0  0  0  0
  1  2  1  0
  2  3  1  0
  2  4  2  0
  5  4  1  6
  3  6  2  0
  5  7  1  0
  6  7  1  0
  5  8  1  0
  7  9  1  6
  8 10  1  0
  7 11  1  0
 10 11  2  0
 10 12  1  0
  9 13  1  0
  9 14  1  0
  9 15  1  0
 12 16  1  0
 16 17  2  0
M  END
