mac-x0204-mac-x0375
     RDKit          3D

 20 21  0  0  0  0  0  0  0  0999 V2000
    0.5630   13.0510   -2.4850 O   0  0  0  0  0  0  0  0  0  0  0  0
    0.2330   14.3080   -2.8560 C   0  0  0  0  0  0  0  0  0  0  0  0
    0.7870   15.3490   -2.5500 O   0  0  0  0  0  0  0  0  0  0  0  0
    0.6620   12.0310   -3.3920 C   0  0  0  0  0  0  0  0  0  0  0  0
    0.5440   10.8430   -3.1340 O   0  0  0  0  0  0  0  0  0  0  0  0
    0.9360   12.5350   -4.8240 C   0  0  0  0  0  0  0  0  0  0  0  0
   -0.9690   14.3150   -3.7340 C   0  0  0  0  0  0  0  0  0  0  0  0
    0.7900   11.5820   -5.8820 O   0  0  0  0  0  0  0  0  0  0  0  0
   -1.3380   15.4190   -4.5120 C   0  0  0  0  0  0  0  0  0  0  0  0
   -1.7780   13.1840   -3.8030 C   0  0  0  0  0  0  0  0  0  0  0  0
   -2.4740   15.3430   -5.3080 C   0  0  0  0  0  0  0  0  0  0  0  0
   -2.8960   13.0910   -4.5800 N   0  0  0  0  0  0  0  0  0  0  0  0
   -0.3630   10.8430   -5.9650 C   0  0  0  0  0  0  0  0  0  0  0  0
   -2.8210   16.4280   -6.0590 O   0  0  0  0  0  0  0  0  0  0  0  0
   -3.2160   14.1730   -5.3150 C   0  0  0  0  0  0  0  0  0  0  0  0
   -0.3150    9.7630   -6.8560 C   0  0  0  0  0  0  0  0  0  0  0  0
   -1.5340   11.0730   -5.2580 C   0  0  0  0  0  0  0  0  0  0  0  0
   -1.4240    8.9300   -7.0290 C   0  0  0  0  0  0  0  0  0  0  0  0
   -2.6460   10.2450   -5.4280 C   0  0  0  0  0  0  0  0  0  0  0  0
   -2.5940    9.1740   -6.3130 C   0  0  0  0  0  0  0  0  0  0  0  0
  1  2  1  0
  2  3  2  0
  1  4  1  0
  4  5  2  0
  4  6  1  0
  2  7  1  0
  6  8  1  0
  7  9  2  0
  7 10  1  0
  9 11  1  0
 10 12  2  0
  8 13  1  0
 11 14  1  0
 11 15  2  0
 12 15  1  0
 13 16  2  0
 13 17  1  0
 16 18  1  0
 17 19  2  0
 18 20  2  0
 19 20  1  0
M  END
