mac-x0282-mac-x0360
     RDKit          3D

 21 23  0  0  0  0  0  0  0  0999 V2000
   -7.9920   11.3000    1.8380 Cl  0  0  0  0  0  0  0  0  0  0  0  0
   -6.7640   11.3990    0.6420 C   0  0  0  0  0  0  0  0  0  0  0  0
   -6.7880   10.5360   -0.4570 C   0  0  0  0  0  0  0  0  0  0  0  0
   -5.7570   12.3390    0.7810 C   0  0  0  0  0  0  0  0  0  0  0  0
   -4.7770   12.4000   -0.2020 C   0  0  0  0  0  0  0  0  0  0  0  0
   -5.7820   10.6210   -1.4240 C   0  0  0  0  0  0  0  0  0  0  0  0
   -5.7880    9.5620   -2.7760 Cl  0  0  0  0  0  0  0  0  0  0  0  0
   -3.5120   13.5800   -0.0800 S   0  0  1  0  0  0  0  0  0  0  0  0
   -4.7730   11.5560   -1.3030 C   0  0  0  0  0  0  0  0  0  0  0  0
   -2.2540   13.1370   -1.1230 N   0  0  0  0  0  0  0  0  0  0  0  0
   -4.0520   14.6360   -0.8980 O   0  0  0  0  0  0  0  0  0  0  0  0
   -2.7610   13.6200    1.2960 N   0  0  0  0  0  0  0  0  0  0  0  0
   -1.9960   14.8440    1.5180 N   0  0  0  0  0  0  0  0  0  0  0  0
   -2.7530   15.4670    0.5920 C   0  0  0  0  0  0  0  0  0  0  0  0
   -0.6200   14.7590    1.2320 C   0  0  0  0  0  0  0  0  0  0  0  0
   -2.2520   15.6290   -0.8000 C   0  0  0  0  0  0  0  0  0  0  0  0
   -3.9920   15.8640    0.7160 N   0  0  0  0  0  0  0  0  0  0  0  0
   -0.0870   15.0320    0.0250 C   0  0  0  0  0  0  0  0  0  0  0  0
   -4.3690   16.1290   -0.5850 C   0  0  0  0  0  0  0  0  0  0  0  0
   -3.4030   15.9860   -1.5220 C   0  0  0  0  0  0  0  0  0  0  0  0
   -0.9620   15.4260   -1.0640 C   0  0  0  0  0  0  0  0  0  0  0  0
  1  2  1  0
  2  3  2  0
  2  4  1  0
  4  5  2  0
  3  6  1  0
  6  7  1  0
  5  8  1  0
  5  9  1  0
  6  9  2  0
  8 10  1  6
  8 11  2  0
  8 12  2  0
 12 13  1  0
 13 14  1  0
 13 15  1  0
 14 16  1  0
 14 17  2  0
 15 18  2  0
 17 19  1  0
 16 20  1  0
 19 20  2  0
 16 21  2  0
 18 21  1  0
M  END
