mac-x0587-diamond-x0626_0_A
     RDKit          3D

 21 21  0  0  0  0  0  0  0  0999 V2000
    0.2120   15.9230   -3.9410 C   0  0  0  0  0  0  0  0  0  0  0  0
   -0.6690   14.6870   -3.7620 C   0  0  2  0  0  0  0  0  0  0  0  0
   -0.4620   13.5900   -5.2300 S   0  0  0  0  0  0  0  0  0  0  0  0
   -2.1560   14.9730   -3.4150 C   0  0  0  0  0  0  0  0  0  0  0  0
   -0.1560   11.8790   -4.6230 C   0  0  0  0  0  0  0  0  0  0  0  0
   -2.9310   15.1990   -4.3530 O   0  0  0  0  0  0  0  0  0  0  0  0
   -2.5690   14.9700   -2.0890 N   0  0  0  0  0  0  0  0  0  0  0  0
    0.5880   11.6750   -3.3170 C   0  0  0  0  0  0  0  0  0  0  0  0
   -3.9090   15.0760   -1.5020 C   0  0  0  0  0  0  0  0  0  0  0  0
   -1.6450   14.8620   -1.0350 C   0  0  0  0  0  0  0  0  0  0  0  0
    0.6100   10.6580   -2.6490 O   0  0  0  0  0  0  0  0  0  0  0  0
    1.2910   12.7490   -2.9030 O   0  0  0  0  0  0  0  0  0  0  0  0
   -0.4300   14.9060   -1.0880 O   0  0  0  0  0  0  0  0  0  0  0  0
   -3.6780   15.2270    0.0230 C   0  0  2  0  0  0  0  0  0  0  0  0
   -2.3400   14.6960    0.1550 N   0  0  0  0  0  0  0  0  0  0  0  0
   -4.6730   14.5210    0.8240 N   0  0  0  0  0  0  0  0  0  0  0  0
   -1.6100   14.5850    1.3940 C   0  0  0  0  0  0  0  0  0  0  0  0
   -5.9920   14.5850    0.4310 C   0  0  0  0  0  0  0  0  0  0  0  0
   -6.3120   14.8250   -0.7240 O   0  0  0  0  0  0  0  0  0  0  0  0
   -6.9910   14.3400    1.5440 C   0  0  0  0  0  0  0  0  0  0  0  0
   -8.4170   14.6020    1.0880 C   0  0  0  0  0  0  0  0  0  0  0  0
  2  1  1  6
  2  3  1  0
  2  4  1  0
  3  5  1  0
  4  6  2  0
  4  7  1  0
  5  8  1  0
  7  9  1  0
  7 10  1  0
  8 11  2  0
  8 12  1  0
 10 13  2  0
  9 14  1  0
 10 15  1  0
 14 15  1  0
 14 16  1  1
 15 17  1  0
 16 18  1  0
 18 19  2  0
 18 20  1  0
 20 21  1  0
M  END
