mac-x0255-diamond-x0722_0_A
     RDKit          3D

 27 29  0  0  0  0  0  0  0  0999 V2000
    2.4030   12.4930   -2.2640 O   0  0  0  0  0  0  0  0  0  0  0  0
    1.1040   12.4720   -2.7640 C   0  0  0  0  0  0  0  0  0  0  0  0
    0.5860   11.1580   -2.5750 O   0  0  0  0  0  0  0  0  0  0  0  0
    1.1570   12.8070   -4.2610 C   0  0  0  0  0  0  0  0  0  0  0  0
    0.3170   13.4450   -1.9040 C   0  0  0  0  0  0  0  0  0  0  0  0
   -1.1470   13.0760   -1.7860 C   0  0  0  0  0  0  0  0  0  0  0  0
    0.5150   14.1130   -4.5810 C   0  0  0  0  0  0  0  0  0  0  0  0
   -1.9990   14.3260   -1.7970 C   0  0  0  0  0  0  0  0  0  0  0  0
    1.1190   15.3350   -4.7460 C   0  0  0  0  0  0  0  0  0  0  0  0
   -1.1770   14.2140   -4.7850 S   0  0  0  0  0  0  0  0  0  0  0  0
    0.1970   16.3750   -5.0570 C   0  0  0  0  0  0  0  0  0  0  0  0
   -1.1150   15.8960   -5.1100 C   0  0  0  0  0  0  0  0  0  0  0  0
   -2.4260   14.6950   -0.4240 C   0  0  0  0  0  0  0  0  0  0  0  0
    0.4190   17.7430   -5.3070 C   0  0  0  0  0  0  0  0  0  0  0  0
   -2.2020   16.7390   -5.4040 C   0  0  0  0  0  0  0  0  0  0  0  0
   -3.6360   15.2280   -0.0150 C   0  0  0  0  0  0  0  0  0  0  0  0
   -1.6580   14.5700    0.7210 N   0  0  0  0  0  0  0  0  0  0  0  0
   -0.3130   14.0860    0.9180 C   0  0  0  0  0  0  0  0  0  0  0  0
   -4.8380   15.5740   -0.8390 C   0  0  0  0  0  0  0  0  0  0  0  0
   -0.6560   18.5760   -5.6070 C   0  0  0  0  0  0  0  0  0  0  0  0
   -1.9400   18.0850   -5.6540 C   0  0  0  0  0  0  0  0  0  0  0  0
   -2.2900   14.9750    1.7990 N   0  0  0  0  0  0  0  0  0  0  0  0
   -3.4670   15.3790    1.3730 C   0  0  0  0  0  0  0  0  0  0  0  0
   -4.3860   15.9190    2.3580 C   0  0  0  0  0  0  0  0  0  0  0  0
   -6.0500   14.7140   -0.5390 C   0  0  0  0  0  0  0  0  0  0  0  0
   -7.2030   15.0650   -0.7610 O   0  0  0  0  0  0  0  0  0  0  0  0
   -5.8080   13.4860    0.0100 N   0  0  0  0  0  0  0  0  0  0  0  0
  2  1  1  0
  2  3  1  0
  2  4  1  0
  2  5  1  0
  5  6  1  0
  4  7  1  0
  6  8  1  0
  7  9  2  0
  7 10  1  0
  9 11  1  0
 10 12  1  0
 11 12  2  0
  8 13  1  0
 11 14  1  0
 12 15  1  0
 13 16  2  0
 13 17  1  0
 17 18  1  0
 16 19  1  0
 14 20  2  0
 15 21  2  0
 20 21  1  0
 17 22  1  0
 16 23  1  0
 22 23  2  0
 23 24  1  0
 19 25  1  0
 25 26  2  0
 25 27  1  0
M  END
