mac-x0404-diamond-x0591_0_A
     RDKit          3D

 29 31  0  0  0  0  0  0  0  0999 V2000
    0.6810   12.8070   -1.6730 O   0  0  0  0  0  0  0  0  0  0  0  0
    1.0560   12.1470   -2.7820 C   0  0  0  0  0  0  0  0  0  0  0  0
    0.5930   11.0440   -3.0170 O   0  0  0  0  0  0  0  0  0  0  0  0
    2.0370   12.9240   -3.6430 C   0  0  0  0  0  0  0  0  0  0  0  0
    1.7150   14.2970   -3.7350 O   0  0  0  0  0  0  0  0  0  0  0  0
    0.4780   14.5870   -4.2400 C   0  0  0  0  0  0  0  0  0  0  0  0
    0.2280   15.9290   -4.6140 C   0  0  0  0  0  0  0  0  0  0  0  0
   -0.5010   13.6380   -4.4000 C   0  0  0  0  0  0  0  0  0  0  0  0
   -0.9770   16.3180   -5.1560 C   0  0  0  0  0  0  0  0  0  0  0  0
   -1.6900   14.0260   -4.9200 C   0  0  0  0  0  0  0  0  0  0  0  0
    1.1650   16.8860   -4.4570 C   0  0  0  0  0  0  0  0  0  0  0  0
   -1.8910   15.3470   -5.2840 C   0  0  0  0  0  0  0  0  0  0  0  0
   -1.2210   17.6400   -5.5470 C   0  0  0  0  0  0  0  0  0  0  0  0
    0.9670   18.2060   -4.8390 C   0  0  0  0  0  0  0  0  0  0  0  0
   -3.0850   15.6190   -5.8000 N   0  0  0  0  0  0  0  0  0  0  0  0
   -0.2470   18.5860   -5.3970 C   0  0  0  0  0  0  0  0  0  0  0  0
   -3.8380   14.1860   -5.6760 S   0  0  0  0  0  0  0  0  0  0  0  0
   -2.8180   13.1570   -5.7360 O   0  0  0  0  0  0  0  0  0  0  0  0
   -4.9260   14.2340   -6.5970 O   0  0  0  0  0  0  0  0  0  0  0  0
   -4.4030   14.3550   -4.0080 C   0  0  0  0  0  0  0  0  0  0  0  0
   -3.6010   14.1870   -2.8510 C   0  0  0  0  0  0  0  0  0  0  0  0
   -5.7270   14.6740   -3.9090 C   0  0  0  0  0  0  0  0  0  0  0  0
   -4.2070   14.3520   -1.5870 C   0  0  0  0  0  0  0  0  0  0  0  0
   -6.3110   14.8370   -2.6860 C   0  0  0  0  0  0  0  0  0  0  0  0
   -5.5800   14.6760   -1.5260 C   0  0  0  0  0  0  0  0  0  0  0  0
   -6.3360   14.8610   -0.2700 C   0  0  0  0  0  0  0  0  0  0  0  0
   -5.7510   14.6370    0.9420 N   0  0  0  0  0  0  0  0  0  0  0  0
   -7.5120   15.1880   -0.3670 O   0  0  0  0  0  0  0  0  0  0  0  0
   -6.6410   14.5590    2.0740 C   0  0  0  0  0  0  0  0  0  0  0  0
  1  2  1  0
  2  3  2  0
  2  4  1  0
  4  5  1  0
  5  6  1  0
  6  7  2  0
  6  8  1  0
  7  9  1  0
  8 10  2  0
  7 11  1  0
  9 12  2  0
 10 12  1  0
  9 13  1  0
 11 14  2  0
 12 15  1  0
 13 16  2  0
 14 16  1  0
 17 15  1  0
 17 18  2  0
 17 19  2  0
 17 20  1  0
 20 21  2  0
 20 22  1  0
 21 23  1  0
 22 24  2  0
 23 25  2  0
 24 25  1  0
 25 26  1  0
 26 27  1  0
 26 28  2  0
 27 29  1  0
M  END
