mac-x0565-diamond-x0844_0_A
     RDKit          3D

 19 21  0  0  0  0  0  0  0  0999 V2000
   -7.8460   14.1220   -2.2400 O   0  0  0  0  0  0  0  0  0  0  0  0
   -6.7000   14.4500   -1.6270 C   0  0  0  0  0  0  0  0  0  0  0  0
   -6.6440   14.8520   -0.4170 N   0  0  0  0  0  0  0  0  0  0  0  0
   -5.4980   14.3230   -2.4900 C   0  0  0  0  0  0  0  0  0  0  0  0
   -4.2580   13.8840   -1.9720 C   0  0  0  0  0  0  0  0  0  0  0  0
   -5.6150   14.6610   -3.8460 C   0  0  0  0  0  0  0  0  0  0  0  0
   -5.3650   15.1230    0.0170 C   0  0  0  0  0  0  0  0  0  0  0  0
   -3.1860   13.8240   -2.8510 C   0  0  0  0  0  0  0  0  0  0  0  0
   -4.5170   14.5870   -4.7040 C   0  0  0  0  0  0  0  0  0  0  0  0
   -5.2090   15.2130    1.3420 N   0  0  0  0  0  0  0  0  0  0  0  0
   -4.3340   15.2730   -0.8840 C   0  0  0  0  0  0  0  0  0  0  0  0
   -3.3190   14.1710   -4.1770 C   0  0  0  0  0  0  0  0  0  0  0  0
   -1.9090   13.4390   -2.5600 O   0  0  0  0  0  0  0  0  0  0  0  0
   -3.9650   15.4560    1.7840 C   0  0  0  0  0  0  0  0  0  0  0  0
   -3.0690   15.5080   -0.3860 C   0  0  0  0  0  0  0  0  0  0  0  0
   -1.5950   15.6860   -1.5450 Br  0  0  0  0  0  0  0  0  0  0  0  0
   -2.1570   14.0530   -4.8700 O   0  0  0  0  0  0  0  0  0  0  0  0
   -1.2370   13.8250   -3.7800 C   0  0  0  0  0  0  0  0  0  0  0  0
   -2.8680   15.6050    0.9680 C   0  0  0  0  0  0  0  0  0  0  0  0
  1  2  1  0
  2  3  2  3
  2  4  1  0
  4  5  2  0
  4  6  1  0
  3  7  1  0
  5  8  1  0
  6  9  2  0
  7 10  2  0
  7 11  1  0
  8 12  2  0
  9 12  1  0
  8 13  1  0
 10 14  1  0
 11 15  2  0
 15 16  1  0
 12 17  1  0
 13 18  1  0
 17 18  1  0
 14 19  2  0
 15 19  1  0
M  END
