mac-x0284-mac-x0546
     RDKit          3D

 25 27  0  0  0  0  0  0  0  0999 V2000
   -3.9460   15.6560    1.0740 C   0  0  0  0  0  0  0  0  0  0  0  0
   -3.5470   15.3370   -0.3320 C   0  0  0  0  0  0  0  0  0  0  0  0
   -4.4780   15.4510   -1.3650 C   0  0  0  0  0  0  0  0  0  0  0  0
   -2.2320   14.9250   -0.6150 C   0  0  0  0  0  0  0  0  0  0  0  0
   -1.8550   14.6350   -1.9270 C   0  0  0  0  0  0  0  0  0  0  0  0
   -4.1110   15.1530   -2.6660 C   0  0  0  0  0  0  0  0  0  0  0  0
   -0.4800   14.1960   -2.2540 C   0  0  0  0  0  0  0  0  0  0  0  0
   -2.8190   14.7510   -2.9350 C   0  0  0  0  0  0  0  0  0  0  0  0
   -2.5760   14.4750   -4.2420 O   0  0  0  0  0  0  0  0  0  0  0  0
   -0.3530   12.9830   -2.5200 N   0  0  0  0  0  0  0  0  0  0  0  0
    0.4930   15.1250   -2.2960 O   0  0  0  0  0  0  0  0  0  0  0  0
    0.7720   12.2530   -2.9610 C   0  0  2  0  0  0  0  0  0  0  0  0
    0.6950   12.6270   -4.4400 C   0  0  0  0  0  0  0  0  0  0  0  0
    0.6010   10.8530   -2.7580 O   0  0  0  0  0  0  0  0  0  0  0  0
    0.6610   14.1140   -4.5390 C   0  0  0  0  0  0  0  0  0  0  0  0
   -0.5100   15.0630   -4.4360 C   0  0  2  0  0  0  0  0  0  0  0  0
    1.7380   14.8310   -4.6720 C   0  0  0  0  0  0  0  0  0  0  0  0
   -1.7490   15.0770   -5.2520 C   0  0  0  0  0  0  0  0  0  0  0  0
    0.2750   16.3230   -4.6680 C   0  0  0  0  0  0  0  0  0  0  0  0
    1.5300   16.1690   -4.7730 N   0  0  0  0  0  0  0  0  0  0  0  0
   -2.3140   16.2720   -5.5670 C   0  0  0  0  0  0  0  0  0  0  0  0
   -0.4280   17.6100   -4.7350 C   0  0  0  0  0  0  0  0  0  0  0  0
   -3.4690   16.4530   -6.2630 O   0  0  0  0  0  0  0  0  0  0  0  0
   -1.6900   17.5290   -5.1730 C   0  0  0  0  0  0  0  0  0  0  0  0
   -4.4250   15.3970   -6.1860 C   0  0  0  0  0  0  0  0  0  0  0  0
  1  2  1  0
  2  3  2  0
  2  4  1  0
  4  5  2  0
  3  6  1  0
  5  7  1  0
  5  8  1  0
  6  8  2  0
  8  9  1  0
  7 10  2  3
  7 11  1  0
 10 12  1  0
 12 13  1  0
 12 14  1  6
 13 15  1  0
 15 16  1  0
 15 17  2  0
 16 18  1  6
 16 19  1  0
 17 20  1  0
 19 20  2  0
 18 21  2  0
 19 22  1  0
 21 23  1  0
 21 24  1  0
 22 24  2  0
 23 25  1  0
M  END
