mac-x0328-mac-x0576
     RDKit          3D

 16 17  0  0  0  0  0  0  0  0999 V2000
   -2.0270   14.4070   -4.1800 O   0  0  0  0  0  0  0  0  0  0  0  0
   -2.0060   14.5600   -2.8430 C   0  0  0  0  0  0  0  0  0  0  0  0
   -0.9960   14.2660   -2.2140 O   0  0  0  0  0  0  0  0  0  0  0  0
   -3.2770   15.1300   -2.2180 C   0  0  2  0  0  0  0  0  0  0  0  0
   -3.3090   15.0480   -0.6620 C   0  0  2  0  0  0  0  0  0  0  0  0
   -4.5720   14.8110   -2.9300 C   0  0  0  0  0  0  0  0  0  0  0  0
   -4.7150   15.5070   -0.1590 C   0  0  0  0  0  0  0  0  0  0  0  0
   -5.7350   14.6370   -2.2900 C   0  0  0  0  0  0  0  0  0  0  0  0
   -2.1510   15.9090   -0.2080 C   0  0  0  0  0  0  0  0  0  0  0  0
   -2.9960   13.7190    0.0370 C   0  0  0  0  0  0  0  0  0  0  0  0
   -5.8660   14.7240   -0.8020 C   0  0  2  0  0  0  0  0  0  0  0  0
   -0.9130   15.1660   -0.0460 N   0  0  0  0  0  0  0  0  0  0  0  0
   -2.2840   13.9110    1.3050 N   0  0  0  0  0  0  0  0  0  0  0  0
   -7.1020   15.3530   -0.4940 O   0  0  0  0  0  0  0  0  0  0  0  0
   -0.9920   14.4890    1.1810 C   0  0  1  0  0  0  0  0  0  0  0  0
    0.0230   13.5170    1.3160 N   0  0  0  0  0  0  0  0  0  0  0  0
  1  2  1  0
  2  3  2  0
  4  2  1  6
  4  5  1  0
  4  6  1  0
  5  7  1  1
  6  8  2  0
  5  9  1  0
  5 10  1  0
  7 11  1  0
  8 11  1  0
  9 12  1  0
 10 13  1  0
 11 14  1  6
 12 15  1  0
 13 15  1  0
 15 16  1  6
M  END
