mac-x0179-mac-x0277
     RDKit          3D

 23 25  0  0  0  0  0  0  0  0999 V2000
    2.0420   12.9390   -2.5500 O   0  0  0  0  0  0  0  0  0  0  0  0
    1.1010   12.1440   -3.0880 C   0  0  0  0  0  0  0  0  0  0  0  0
    0.9600   11.0100   -2.6740 O   0  0  0  0  0  0  0  0  0  0  0  0
    0.2450   12.7530   -4.1810 C   0  0  2  0  0  0  0  0  0  0  0  0
   -0.0920   11.8920   -5.2990 N   0  0  0  0  0  0  0  0  0  0  0  0
    0.1510   14.2380   -4.4320 C   0  0  0  0  0  0  0  0  0  0  0  0
    0.7010   11.5260   -6.3570 C   0  0  0  0  0  0  0  0  0  0  0  0
   -1.1890   11.0970   -5.2030 C   0  0  0  0  0  0  0  0  0  0  0  0
   -1.1280   14.5690   -4.8370 C   0  0  0  0  0  0  0  0  0  0  0  0
    1.1190   15.2610   -4.3100 C   0  0  0  0  0  0  0  0  0  0  0  0
    1.7780   11.9630   -6.6930 O   0  0  0  0  0  0  0  0  0  0  0  0
   -2.0580   11.1090   -4.3560 O   0  0  0  0  0  0  0  0  0  0  0  0
   -0.0120   10.4320   -7.0390 C   0  0  0  0  0  0  0  0  0  0  0  0
   -1.1660   10.1780   -6.3210 C   0  0  0  0  0  0  0  0  0  0  0  0
   -1.4910   15.8540   -5.1200 C   0  0  0  0  0  0  0  0  0  0  0  0
    0.7460   16.5910   -4.6010 C   0  0  0  0  0  0  0  0  0  0  0  0
   -3.1230   16.0660   -5.6090 Cl  0  0  0  0  0  0  0  0  0  0  0  0
    0.2970    9.7090   -8.1740 C   0  0  0  0  0  0  0  0  0  0  0  0
   -2.0740    9.2040   -6.6790 C   0  0  0  0  0  0  0  0  0  0  0  0
   -0.5680   16.8800   -5.0060 C   0  0  0  0  0  0  0  0  0  0  0  0
   -1.0160   18.5050   -5.3550 Cl  0  0  0  0  0  0  0  0  0  0  0  0
   -0.6090    8.7100   -8.5640 C   0  0  0  0  0  0  0  0  0  0  0  0
   -1.7840    8.4600   -7.8230 C   0  0  0  0  0  0  0  0  0  0  0  0
  1  2  1  0
  2  3  2  0
  4  2  1  6
  4  5  1  0
  4  6  1  0
  5  7  1  0
  5  8  1  0
  6  9  2  0
  6 10  1  0
  7 11  2  0
  8 12  2  0
  7 13  1  0
  8 14  1  0
 13 14  2  0
  9 15  1  0
 10 16  2  0
 15 17  1  0
 13 18  1  0
 14 19  1  0
 15 20  2  0
 16 20  1  0
 20 21  1  0
 18 22  2  0
 19 23  2  0
 22 23  1  0
M  END
