mac-x0139-mac-x0302
     RDKit          3D

 19 20  0  0  0  0  0  0  0  0999 V2000
   -2.3910   15.2620   -3.4790 C   0  0  0  0  0  0  0  0  0  0  0  0
   -1.4360   14.6800   -2.6460 N   0  0  0  0  0  0  0  0  0  0  0  0
   -0.1630   14.5210   -3.3590 C   0  0  2  0  0  0  0  0  0  0  0  0
   -3.5920   15.0540   -3.5170 O   0  0  0  0  0  0  0  0  0  0  0  0
   -1.5230   14.7650   -1.2330 C   0  0  0  0  0  0  0  0  0  0  0  0
    0.1630   13.1360   -3.9310 C   0  0  0  0  0  0  0  0  0  0  0  0
    0.9620   15.0690   -2.5360 C   0  0  0  0  0  0  0  0  0  0  0  0
   -2.7210   14.8820   -0.6260 C   0  0  0  0  0  0  0  0  0  0  0  0
   -0.3290   14.7410   -0.4910 N   0  0  0  0  0  0  0  0  0  0  0  0
    0.9620   12.2950   -2.9830 C   0  0  0  0  0  0  0  0  0  0  0  0
   -2.7500   14.9710    0.8510 C   0  0  0  0  0  0  0  0  0  0  0  0
   -0.4120   14.8220    0.8110 C   0  0  0  0  0  0  0  0  0  0  0  0
   -4.0940   14.9560   -0.9970 C   0  0  0  0  0  0  0  0  0  0  0  0
    1.9020   12.6240   -2.2930 O   0  0  0  0  0  0  0  0  0  0  0  0
    0.5250   11.0240   -2.9410 O   0  0  0  0  0  0  0  0  0  0  0  0
   -1.5670   14.9170    1.5190 N   0  0  0  0  0  0  0  0  0  0  0  0
   -3.9740   15.0890    1.2910 N   0  0  0  0  0  0  0  0  0  0  0  0
   -4.7690   15.0670    0.1500 C   0  0  0  0  0  0  0  0  0  0  0  0
   -6.1450   15.1450    0.2090 O   0  0  0  0  0  0  0  0  0  0  0  0
  1  2  1  0
  2  3  1  0
  1  4  2  0
  2  5  1  0
  3  6  1  0
  3  7  1  1
  5  8  2  0
  5  9  1  0
  6 10  1  0
  8 11  1  0
  9 12  2  0
  8 13  1  0
 10 14  2  0
 10 15  1  0
 11 16  1  0
 12 16  1  0
 11 17  2  0
 13 18  2  0
 17 18  1  0
 18 19  1  0
M  END
