mac-x0587-diamond-x0628_0_A
     RDKit          3D

 22 23  0  0  0  0  0  0  0  0999 V2000
   -0.0560   16.6190   -4.2760 C   0  0  0  0  0  0  0  0  0  0  0  0
   -0.5270   15.2350   -3.8650 C   0  0  2  0  0  0  0  0  0  0  0  0
   -0.0950   13.8620   -4.9890 S   0  0  0  0  0  0  0  0  0  0  0  0
   -2.0370   15.1520   -3.5100 C   0  0  0  0  0  0  0  0  0  0  0  0
   -0.3820   12.3350   -4.0120 C   0  0  2  0  0  0  0  0  0  0  0  0
   -2.8780   15.3510   -4.3980 O   0  0  0  0  0  0  0  0  0  0  0  0
   -2.4690   14.8650   -2.2050 N   0  0  0  0  0  0  0  0  0  0  0  0
    0.7400   11.9480   -2.9710 C   0  0  0  0  0  0  0  0  0  0  0  0
   -3.8710   15.0960   -1.8700 C   0  0  0  0  0  0  0  0  0  0  0  0
   -1.7450   14.7570   -0.9940 C   0  0  0  0  0  0  0  0  0  0  0  0
   -0.8520   11.3260   -4.9200 N   0  0  0  0  0  0  0  0  0  0  0  0
    0.7420   10.5200   -2.7520 O   0  0  0  0  0  0  0  0  0  0  0  0
    0.5130   12.4710   -1.6550 O   0  0  0  0  0  0  0  0  0  0  0  0
   -0.5470   14.7970   -0.7930 O   0  0  0  0  0  0  0  0  0  0  0  0
    2.0930   12.5020   -3.4460 C   0  0  0  0  0  0  0  0  0  0  0  0
   -3.9220   15.1670   -0.3520 C   0  0  0  0  0  0  0  0  0  0  0  0
   -2.6680   14.6070    0.0330 N   0  0  0  0  0  0  0  0  0  0  0  0
   -0.1140   10.8750   -5.9640 N   0  0  0  0  0  0  0  0  0  0  0  0
   -2.0550   10.7160   -4.8720 C   0  0  0  0  0  0  0  0  0  0  0  0
   -2.1490    9.8600   -5.8500 N   0  0  0  0  0  0  0  0  0  0  0  0
   -0.9480    9.9780   -6.4940 C   0  0  0  0  0  0  0  0  0  0  0  0
   -0.6110    9.1720   -7.6780 C   0  0  0  0  0  0  0  0  0  0  0  0
  2  1  1  6
  2  3  1  0
  2  4  1  0
  5  3  1  6
  4  6  2  0
  4  7  1  0
  5  8  1  0
  7  9  1  0
  7 10  1  0
  5 11  1  0
  8 12  1  0
  8 13  1  0
 10 14  2  0
  8 15  1  0
  9 16  1  0
 10 17  1  0
 16 17  1  0
 11 18  1  0
 11 19  1  0
 19 20  2  0
 18 21  2  0
 20 21  1  0
 21 22  1  0
M  END
