mac-x0302-mac-x0398
     RDKit          3D

 16 16  0  0  0  0  0  0  0  0999 V2000
    1.5250   14.1280   -3.7280 O   0  0  0  0  0  0  0  0  0  0  0  0
    0.4990   14.0460   -2.8630 C   0  0  0  0  0  0  0  0  0  0  0  0
    0.6560   13.5650   -1.7570 O   0  0  0  0  0  0  0  0  0  0  0  0
   -0.8000   14.5990   -3.4220 C   0  0  0  0  0  0  0  0  0  0  0  0
   -1.7920   14.6450   -2.3570 N   0  0  0  0  0  0  0  0  0  0  0  0
   -3.0780   15.1110   -2.4540 C   0  0  0  0  0  0  0  0  0  0  0  0
   -3.5010   15.5650   -3.5130 O   0  0  0  0  0  0  0  0  0  0  0  0
   -3.9470   15.0610   -1.2640 C   0  0  0  0  0  0  0  0  0  0  0  0
   -5.3390   15.0260   -1.4040 C   0  0  0  0  0  0  0  0  0  0  0  0
   -3.3700   15.0450    0.0110 C   0  0  0  0  0  0  0  0  0  0  0  0
   -5.9600   15.0490   -2.6270 O   0  0  0  0  0  0  0  0  0  0  0  0
   -6.1250   14.9610   -0.2570 C   0  0  0  0  0  0  0  0  0  0  0  0
   -4.1710   14.9870    1.1460 C   0  0  0  0  0  0  0  0  0  0  0  0
   -7.4910   14.9170   -0.3520 O   0  0  0  0  0  0  0  0  0  0  0  0
   -5.5580   14.9380    1.0230 C   0  0  0  0  0  0  0  0  0  0  0  0
   -6.3850   14.8640    2.1580 N   0  0  0  0  0  0  0  0  0  0  0  0
  1  2  1  0
  2  3  2  0
  2  4  1  0
  4  5  1  0
  5  6  1  0
  6  7  2  0
  6  8  1  0
  8  9  2  0
  8 10  1  0
  9 11  1  0
  9 12  1  0
 10 13  2  0
 12 14  1  0
 12 15  2  0
 13 15  1  0
 15 16  1  0
M  END
