mac-x0161-mac-x0358
     RDKit          3D

 28 31  0  0  0  0  0  0  0  0999 V2000
   -4.8600   14.9590    0.9190 N   0  0  0  0  0  0  0  0  0  0  0  0
   -3.7130   14.5100    0.1490 C   0  0  2  0  0  0  0  0  0  0  0  0
   -2.3890   14.9290    0.7870 C   0  0  2  0  0  0  0  0  0  0  0  0
   -3.8170   15.1100   -1.1790 N   0  0  0  0  0  0  0  0  0  0  0  0
   -2.6730   14.7390   -2.0560 C   0  0  0  0  0  0  0  0  0  0  0  0
   -1.3230   14.4790   -0.1230 C   0  0  1  0  0  0  0  0  0  0  0  0
   -1.9030   14.1710    1.9200 N   0  0  0  0  0  0  0  0  0  0  0  0
   -1.3570   14.9130   -1.4370 N   0  0  0  0  0  0  0  0  0  0  0  0
   -0.1530   14.9240    0.5730 N   0  0  0  0  0  0  0  0  0  0  0  0
   -0.4320   14.1270    1.7410 C   0  0  0  0  0  0  0  0  0  0  0  0
   -0.1820   14.3100   -2.0420 C   0  0  0  0  0  0  0  0  0  0  0  0
   -0.3520   12.8820   -2.3590 C   0  0  0  0  0  0  0  0  0  0  0  0
   -0.9460   12.3650   -3.4220 C   0  0  0  0  0  0  0  0  0  0  0  0
    0.0990   11.8440   -1.5650 O   0  0  0  0  0  0  0  0  0  0  0  0
   -0.2200   10.6230   -2.1810 N   0  0  0  0  0  0  0  0  0  0  0  0
   -0.8600   10.9780   -3.3170 C   0  0  0  0  0  0  0  0  0  0  0  0
   -1.4460   10.3860   -4.3790 N   0  0  0  0  0  0  0  0  0  0  0  0
   -0.7740    9.4940   -5.3190 C   0  0  0  0  0  0  0  0  0  0  0  0
   -1.8540   11.5960   -4.9720 C   0  0  0  0  0  0  0  0  0  0  0  0
   -0.8520   12.5150   -5.3970 C   0  0  0  0  0  0  0  0  0  0  0  0
   -3.2130   11.9380   -5.1110 C   0  0  0  0  0  0  0  0  0  0  0  0
    0.6600   12.3030   -5.3550 C   0  0  0  0  0  0  0  0  0  0  0  0
   -3.5890   13.1700   -5.6440 C   0  0  0  0  0  0  0  0  0  0  0  0
   -1.2600   13.7260   -5.9000 C   0  0  0  0  0  0  0  0  0  0  0  0
    1.3760   12.5230   -4.0460 C   0  0  0  0  0  0  0  0  0  0  0  0
   -2.6060   14.0690   -6.0310 C   0  0  0  0  0  0  0  0  0  0  0  0
    2.1230   13.6460   -4.0150 O   0  0  0  0  0  0  0  0  0  0  0  0
    1.3690   11.8020   -3.0710 O   0  0  0  0  0  0  0  0  0  0  0  0
  2  1  1  1
  2  3  1  0
  2  4  1  0
  4  5  1  0
  3  6  1  0
  3  7  1  1
  5  8  1  0
  6  8  1  0
  6  9  1  1
  7 10  1  0
  9 10  1  0
  8 11  1  0
 11 12  1  0
 12 13  2  0
 12 14  1  0
 14 15  1  0
 13 16  1  0
 15 16  2  0
 16 17  1  0
 17 18  1  0
 17 19  1  0
 19 20  2  0
 19 21  1  0
 20 22  1  0
 21 23  2  0
 20 24  1  0
 22 25  1  0
 23 26  1  0
 24 26  2  0
 25 27  1  0
 25 28  2  0
M  END
