mac-x0361-mac-x0358
     RDKit          3D

 21 22  0  0  0  0  0  0  0  0999 V2000
   -6.2910   14.8210    1.7590 N   0  0  0  0  0  0  0  0  0  0  0  0
   -6.5310   14.5550    0.4310 C   0  0  0  0  0  0  0  0  0  0  0  0
   -7.6260   14.1270    0.0900 O   0  0  0  0  0  0  0  0  0  0  0  0
   -5.4830   14.8250   -0.5960 C   0  0  0  0  0  0  0  0  0  0  0  0
   -4.1340   14.9630   -0.2380 C   0  0  0  0  0  0  0  0  0  0  0  0
   -5.8470   14.9420   -1.9360 C   0  0  0  0  0  0  0  0  0  0  0  0
   -3.1770   15.2350   -1.2280 C   0  0  0  0  0  0  0  0  0  0  0  0
   -4.8920   15.2090   -2.9040 C   0  0  0  0  0  0  0  0  0  0  0  0
   -3.5640   15.3770   -2.5690 C   0  0  0  0  0  0  0  0  0  0  0  0
   -2.7300   15.6880   -3.6340 O   0  0  0  0  0  0  0  0  0  0  0  0
   -2.2280   14.6490   -4.3130 C   0  0  0  0  0  0  0  0  0  0  0  0
   -3.0610   13.9870   -5.2070 C   0  0  0  0  0  0  0  0  0  0  0  0
   -0.9260   14.2590   -4.0930 C   0  0  0  0  0  0  0  0  0  0  0  0
   -0.4250   13.1620   -4.7570 C   0  0  0  0  0  0  0  0  0  0  0  0
   -2.5660   12.8810   -5.8850 C   0  0  0  0  0  0  0  0  0  0  0  0
    0.9840   12.7430   -4.4760 C   0  0  0  0  0  0  0  0  0  0  0  0
   -1.2510   12.4760   -5.6440 C   0  0  0  0  0  0  0  0  0  0  0  0
    1.0130   12.0770   -3.1260 C   0  0  0  0  0  0  0  0  0  0  0  0
   -0.7430   11.3830   -6.2740 O   0  0  0  0  0  0  0  0  0  0  0  0
    1.6640   12.8060   -2.1960 O   0  0  0  0  0  0  0  0  0  0  0  0
    0.5150   11.0090   -2.8180 O   0  0  0  0  0  0  0  0  0  0  0  0
  1  2  1  0
  2  3  2  0
  2  4  1  0
  4  5  2  0
  4  6  1  0
  5  7  1  0
  6  8  2  0
  7  9  2  0
  8  9  1  0
  9 10  1  0
 10 11  1  0
 11 12  2  0
 11 13  1  0
 13 14  2  0
 12 15  1  0
 14 16  1  0
 14 17  1  0
 15 17  2  0
 16 18  1  0
 17 19  1  0
 18 20  1  0
 18 21  2  0
M  END
