mac-x0277-mac-x0341
     RDKit          3D

 27 29  0  0  0  0  0  0  0  0999 V2000
   -1.3140   18.4170   -5.2010 Cl  0  0  0  0  0  0  0  0  0  0  0  0
   -0.6630   16.8390   -4.9560 C   0  0  0  0  0  0  0  0  0  0  0  0
   -1.4710   15.6970   -5.0440 C   0  0  0  0  0  0  0  0  0  0  0  0
    0.7000   16.7450   -4.6710 C   0  0  0  0  0  0  0  0  0  0  0  0
   -2.9600   15.8120   -5.3530 C   0  0  0  0  0  0  0  0  0  0  0  0
   -0.8580   14.4410   -4.8380 C   0  0  0  0  0  0  0  0  0  0  0  0
    1.2900   15.4980   -4.4680 C   0  0  0  0  0  0  0  0  0  0  0  0
   -3.7170   14.4910   -5.5920 C   0  0  0  0  0  0  0  0  0  0  0  0
    0.5200   14.3340   -4.5510 C   0  0  0  0  0  0  0  0  0  0  0  0
    1.1520   12.9820   -4.3330 C   0  0  0  0  0  0  0  0  0  0  0  0
   -5.0390   14.3820   -4.7980 C   0  0  0  0  0  0  0  0  0  0  0  0
    0.9330   12.4220   -2.9460 C   0  0  0  0  0  0  0  0  0  0  0  0
   -4.8770   14.7260   -3.3170 C   0  0  0  0  0  0  0  0  0  0  0  0
    0.4010   11.1790   -2.9650 O   0  0  0  0  0  0  0  0  0  0  0  0
    1.1690   12.9480   -1.8770 O   0  0  0  0  0  0  0  0  0  0  0  0
   -6.0710   14.6940   -2.4680 N   0  0  0  0  0  0  0  0  0  0  0  0
   -5.8100   14.8870   -1.2190 C   0  0  0  0  0  0  0  0  0  0  0  0
   -6.6080   14.9000   -0.0860 N   0  0  0  0  0  0  0  0  0  0  0  0
   -4.3630   15.1230   -0.9320 C   0  0  0  0  0  0  0  0  0  0  0  0
   -6.0950   14.7240    1.1780 C   0  0  0  0  0  0  0  0  0  0  0  0
   -3.9520   15.0510    0.3990 C   0  0  0  0  0  0  0  0  0  0  0  0
   -3.4510   15.4000   -1.9560 C   0  0  0  0  0  0  0  0  0  0  0  0
   -6.9910   14.4810    2.1770 N   0  0  0  0  0  0  0  0  0  0  0  0
   -4.8340   14.7820    1.4630 N   0  0  0  0  0  0  0  0  0  0  0  0
   -2.6010   15.2550    0.6880 C   0  0  0  0  0  0  0  0  0  0  0  0
   -2.1110   15.6030   -1.6550 C   0  0  0  0  0  0  0  0  0  0  0  0
   -1.6850   15.5290   -0.3320 C   0  0  0  0  0  0  0  0  0  0  0  0
  1  2  1  0
  2  3  2  0
  2  4  1  0
  3  5  1  0
  3  6  1  0
  4  7  2  0
  5  8  1  0
  6  9  2  0
  7  9  1  0
  9 10  1  0
  8 11  1  0
 10 12  1  0
 11 13  1  0
 12 14  1  0
 12 15  2  0
 13 16  1  0
 16 17  2  3
 17 18  1  0
 17 19  1  0
 18 20  1  0
 19 21  2  0
 19 22  1  0
 20 23  1  0
 20 24  2  0
 21 24  1  0
 21 25  1  0
 22 26  2  0
 25 27  2  0
 26 27  1  0
M  END
