mac-x0361-mac-x0348
     RDKit          3D

 26 28  0  0  0  0  0  0  0  0999 V2000
   -6.4360   14.8030    1.7780 N   0  0  0  0  0  0  0  0  0  0  0  0
   -6.6220   14.7220    0.4150 C   0  0  0  0  0  0  0  0  0  0  0  0
   -7.7440   14.5690   -0.0450 O   0  0  0  0  0  0  0  0  0  0  0  0
   -5.4340   14.8330   -0.4680 C   0  0  0  0  0  0  0  0  0  0  0  0
   -4.1430   14.7200    0.0430 C   0  0  0  0  0  0  0  0  0  0  0  0
   -5.6230   15.0500   -1.8420 C   0  0  0  0  0  0  0  0  0  0  0  0
   -3.0560   14.8190   -0.8140 C   0  0  0  0  0  0  0  0  0  0  0  0
   -4.5210   15.1460   -2.6960 C   0  0  0  0  0  0  0  0  0  0  0  0
   -3.2400   15.0290   -2.1770 C   0  0  0  0  0  0  0  0  0  0  0  0
   -2.0930   15.0970   -2.8890 O   0  0  0  0  0  0  0  0  0  0  0  0
   -1.0780   14.1430   -2.5390 C   0  0  0  0  0  0  0  0  0  0  0  0
   -0.1210   14.0200   -3.7270 C   0  0  2  0  0  0  0  0  0  0  0  0
    1.1970   13.3790   -3.3680 C   0  0  0  0  0  0  0  0  0  0  0  0
   -0.0980   15.3390   -4.4080 C   0  0  0  0  0  0  0  0  0  0  0  0
    0.8570   12.3550   -2.3400 C   0  0  0  0  0  0  0  0  0  0  0  0
    0.9030   16.2740   -4.5610 C   0  0  0  0  0  0  0  0  0  0  0  0
   -1.2400   15.8280   -5.0440 C   0  0  0  0  0  0  0  0  0  0  0  0
    0.6740   12.6010   -1.1670 O   0  0  0  0  0  0  0  0  0  0  0  0
    0.7240   11.1030   -2.8120 O   0  0  0  0  0  0  0  0  0  0  0  0
    0.3790   17.3110   -5.2800 N   0  0  0  0  0  0  0  0  0  0  0  0
   -0.9220   17.0630   -5.5820 C   0  0  0  0  0  0  0  0  0  0  0  0
   -2.5240   15.2900   -5.1960 C   0  0  0  0  0  0  0  0  0  0  0  0
    1.0870   18.4930   -5.6710 C   0  0  0  0  0  0  0  0  0  0  0  0
   -3.4590   16.0100   -5.8910 C   0  0  0  0  0  0  0  0  0  0  0  0
   -1.8520   17.7950   -6.2760 C   0  0  0  0  0  0  0  0  0  0  0  0
   -3.0950   17.2400   -6.4100 C   0  0  0  0  0  0  0  0  0  0  0  0
  1  2  1  0
  2  3  2  0
  2  4  1  0
  4  5  2  0
  4  6  1  0
  5  7  1  0
  6  8  2  0
  7  9  2  0
  8  9  1  0
  9 10  1  0
 10 11  1  0
 12 11  1  1
 12 13  1  0
 12 14  1  0
 13 15  1  0
 14 16  2  0
 14 17  1  0
 15 18  2  0
 15 19  1  0
 16 20  1  0
 17 21  2  0
 20 21  1  0
 17 22  1  0
 20 23  1  0
 22 24  2  0
 21 25  1  0
 24 26  1  0
 25 26  2  0
M  END
