mac-x0333-diamond-x0855_0_A
     RDKit          3D

 23 25  0  0  0  0  0  0  0  0999 V2000
   -2.4400   15.4540   -2.8240 O   0  0  0  0  0  0  0  0  0  0  0  0
   -3.3110   15.3200   -1.7770 C   0  0  0  0  0  0  0  0  0  0  0  0
   -2.7890   15.2970   -0.4600 C   0  0  0  0  0  0  0  0  0  0  0  0
   -4.6820   15.2100   -2.0330 C   0  0  0  0  0  0  0  0  0  0  0  0
   -1.2940   15.4120   -0.1940 C   0  0  0  0  0  0  0  0  0  0  0  0
   -5.5220   15.0790   -0.9520 C   0  0  0  0  0  0  0  0  0  0  0  0
   -3.6930   15.1620    0.6180 C   0  0  0  0  0  0  0  0  0  0  0  0
   -0.4330   14.1810   -0.5800 C   0  0  0  0  0  0  0  0  0  0  0  0
   -5.0440   15.0570    0.3340 C   0  0  0  0  0  0  0  0  0  0  0  0
   -6.8780   14.9560   -0.9960 O   0  0  0  0  0  0  0  0  0  0  0  0
    0.0550   14.1850   -2.0420 C   0  0  0  0  0  0  0  0  0  0  0  0
   -6.0520   14.9200    1.2370 O   0  0  0  0  0  0  0  0  0  0  0  0
   -7.1340   14.5570    0.3630 C   0  0  0  0  0  0  0  0  0  0  0  0
    1.0900   13.1960   -2.2580 O   0  0  0  0  0  0  0  0  0  0  0  0
    0.7780   12.1250   -3.0520 C   0  0  0  0  0  0  0  0  0  0  0  0
    0.6720   10.9800   -2.6340 O   0  0  0  0  0  0  0  0  0  0  0  0
    0.5690   12.5540   -4.4840 C   0  0  0  0  0  0  0  0  0  0  0  0
   -0.4400   11.7040   -5.0810 N   0  0  0  0  0  0  0  0  0  0  0  0
   -0.2900   10.7890   -6.0840 C   0  0  0  0  0  0  0  0  0  0  0  0
   -1.7090   11.7790   -4.6160 N   0  0  0  0  0  0  0  0  0  0  0  0
   -1.5290   10.2380   -6.2600 C   0  0  0  0  0  0  0  0  0  0  0  0
   -2.3690   10.8770   -5.3440 C   0  0  0  0  0  0  0  0  0  0  0  0
   -2.0440    8.9080   -7.4570 Br  0  0  0  0  0  0  0  0  0  0  0  0
  1  2  1  0
  2  3  2  0
  2  4  1  0
  3  5  1  0
  4  6  2  0
  3  7  1  0
  5  8  1  0
  6  9  1  0
  7  9  2  0
  6 10  1  0
  8 11  1  0
  9 12  1  0
 10 13  1  0
 12 13  1  0
 11 14  1  0
 14 15  1  0
 15 16  2  0
 15 17  1  0
 17 18  1  0
 18 19  1  0
 18 20  1  0
 19 21  2  0
 20 22  2  0
 21 22  1  0
 21 23  1  0
M  END
