mac-x0326-mac-x0379
     RDKit          3D

 19 21  0  0  0  0  0  0  0  0999 V2000
   -5.5850   15.3560   -1.8520 Cl  0  0  0  0  0  0  0  0  0  0  0  0
   -3.8050   15.5900   -1.6930 C   0  0  2  0  0  0  0  0  0  0  0  0
   -3.0210   14.9840   -2.8940 C   0  0  1  0  0  0  0  0  0  0  0  0
   -3.4420   14.9840   -0.4040 C   0  0  0  0  0  0  0  0  0  0  0  0
   -1.4480   14.8200   -2.8440 C   0  0  1  0  0  0  0  0  0  0  0  0
   -3.5740   13.5950   -2.9650 C   0  0  1  0  0  0  0  0  0  0  0  0
   -3.1810   13.6950   -0.3810 C   0  0  0  0  0  0  0  0  0  0  0  0
   -0.8830   13.4650   -3.4010 C   0  0  2  0  0  0  0  0  0  0  0  0
   -0.7860   15.8420   -3.5760 O   0  0  0  0  0  0  0  0  0  0  0  0
   -3.2280   12.8230   -4.2310 C   0  0  1  0  0  0  0  0  0  0  0  0
   -3.2590   12.8730   -1.6560 C   0  0  1  0  0  0  0  0  0  0  0  0
    0.5750   13.4530   -3.8610 C   0  0  0  0  0  0  0  0  0  0  0  0
   -1.7300   12.7210   -4.4540 C   0  0  0  0  0  0  0  0  0  0  0  0
   -4.1460   11.6960   -1.5240 C   0  0  0  0  0  0  0  0  0  0  0  0
   -3.9330   11.4880   -4.2970 C   0  0  0  0  0  0  0  0  0  0  0  0
    1.3150   12.4010   -3.1040 C   0  0  0  0  0  0  0  0  0  0  0  0
   -4.6020   10.7020   -2.8810 S   0  0  0  0  0  0  0  0  0  0  0  0
    0.6890   11.2090   -3.0660 O   0  0  0  0  0  0  0  0  0  0  0  0
    2.3730   12.5500   -2.5370 O   0  0  0  0  0  0  0  0  0  0  0  0
  2  1  1  6
  3  2  1  1
  2  4  1  0
  3  5  1  0
  3  6  1  0
  4  7  2  0
  5  8  1  0
  5  9  1  6
  6 10  1  6
  6 11  1  0
 11  7  1  1
  8 12  1  6
  8 13  1  0
 10 13  1  1
 11 14  1  0
 10 15  1  0
 12 16  1  0
 14 17  2  0
 15 17  2  0
 16 18  1  0
 16 19  2  0
M  END
