mac-x0137-diamond-x0855_0_A
     RDKit          3D

 26 29  0  0  0  0  0  0  0  0999 V2000
   -2.8900   14.0510   -5.3290 F   0  0  0  0  0  0  0  0  0  0  0  0
   -2.8240   14.1200   -3.9830 C   0  0  1  0  0  0  0  0  0  0  0  0
   -2.1990   12.8860   -3.5200 C   0  0  0  0  0  0  0  0  0  0  0  0
   -1.9250   15.2340   -3.5290 C   0  0  0  0  0  0  0  0  0  0  0  0
   -0.9150   14.7870   -2.5010 N   0  0  0  0  0  0  0  0  0  0  0  0
   -0.7250   12.9060   -3.8720 C   0  0  2  0  0  0  0  0  0  0  0  0
   -0.4760   11.5030   -3.6560 C   0  0  2  0  0  0  0  0  0  0  0  0
    0.0760   13.8590   -3.0070 C   0  0  0  0  0  0  0  0  0  0  0  0
   -1.2330   14.7540   -1.1450 C   0  0  0  0  0  0  0  0  0  0  0  0
    0.7590   11.2250   -2.9510 C   0  0  0  0  0  0  0  0  0  0  0  0
   -0.2390   14.4980   -0.2140 N   0  0  0  0  0  0  0  0  0  0  0  0
   -2.4480   14.9760   -0.6290 C   0  0  0  0  0  0  0  0  0  0  0  0
   -0.8970   10.8410   -4.8470 N   0  0  0  0  0  0  0  0  0  0  0  0
    1.7560   12.1320   -3.1310 O   0  0  0  0  0  0  0  0  0  0  0  0
    0.8740   10.2760   -2.2190 O   0  0  0  0  0  0  0  0  0  0  0  0
   -0.4880   14.4450    1.1300 C   0  0  0  0  0  0  0  0  0  0  0  0
   -2.6360   14.9490    0.8370 C   0  0  0  0  0  0  0  0  0  0  0  0
   -3.7520   15.2910   -1.1190 C   0  0  0  0  0  0  0  0  0  0  0  0
   -0.6380    9.6260   -5.3720 C   0  0  0  0  0  0  0  0  0  0  0  0
   -1.7440   11.5870   -5.5820 N   0  0  0  0  0  0  0  0  0  0  0  0
   -1.6240   14.6480    1.6960 N   0  0  0  0  0  0  0  0  0  0  0  0
   -3.8510   15.2560    1.1800 N   0  0  0  0  0  0  0  0  0  0  0  0
   -4.5040   15.4520   -0.0250 C   0  0  0  0  0  0  0  0  0  0  0  0
   -1.3800    9.5890   -6.5150 C   0  0  0  0  0  0  0  0  0  0  0  0
   -2.0380   10.8110   -6.6010 C   0  0  0  0  0  0  0  0  0  0  0  0
   -1.5320    8.2090   -7.7440 Br  0  0  0  0  0  0  0  0  0  0  0  0
  2  1  1  6
  2  3  1  0
  2  4  1  0
  4  5  1  0
  6  3  1  1
  6  7  1  0
  5  8  1  0
  6  8  1  0
  5  9  1  0
  7 10  1  6
  9 11  1  0
  9 12  2  0
  7 13  1  0
 10 14  1  0
 10 15  2  0
 11 16  1  0
 12 17  1  0
 12 18  1  0
 13 19  1  0
 13 20  1  0
 16 21  2  0
 17 21  1  0
 17 22  2  0
 18 23  2  0
 22 23  1  0
 19 24  2  0
 20 25  2  0
 24 25  1  0
 24 26  1  0
M  END
