mac-x0385-mac-x0115
     RDKit          3D

 20 21  0  0  0  0  0  0  0  0999 V2000
   -5.1670   15.4320   -0.5130 C   0  0  0  0  0  0  0  0  0  0  0  0
   -3.6500   15.4330   -0.3190 C   0  0  2  0  0  0  0  0  0  0  0  0
   -2.9410   15.0490   -1.5880 C   0  0  0  0  0  0  0  0  0  0  0  0
   -3.1950   14.4970    0.7910 C   0  0  2  0  0  0  0  0  0  0  0  0
   -3.4460   15.1060    2.0640 N   0  0  0  0  0  0  0  0  0  0  0  0
   -1.7530   14.2180    0.7820 N   0  0  0  0  0  0  0  0  0  0  0  0
   -1.5640   15.3850   -1.3860 N   0  0  0  0  0  0  0  0  0  0  0  0
   -0.8880   14.9120   -0.1860 C   0  0  1  0  0  0  0  0  0  0  0  0
   -0.8100   15.5090   -2.5860 C   0  0  0  0  0  0  0  0  0  0  0  0
   -0.3980   16.0760    0.5770 C   0  0  0  0  0  0  0  0  0  0  0  0
    0.1110   14.4400   -2.7670 N   0  0  0  0  0  0  0  0  0  0  0  0
    0.2860   14.1200   -0.4860 N   0  0  0  0  0  0  0  0  0  0  0  0
    0.5920   14.3380   -4.1570 C   0  0  0  0  0  0  0  0  0  0  0  0
    0.9230   14.1740   -1.7000 C   0  0  0  0  0  0  0  0  0  0  0  0
    0.7560   15.7000   -4.8630 C   0  0  0  0  0  0  0  0  0  0  0  0
    2.5800   13.9500   -1.7750 S   0  0  0  0  0  0  0  0  0  0  0  0
   -0.4890   16.3500   -5.1420 O   0  0  0  0  0  0  0  0  0  0  0  0
   -0.4000   17.6300   -5.7820 C   0  0  0  0  0  0  0  0  0  0  0  0
   -1.4380   18.5660   -5.1950 C   0  0  0  0  0  0  0  0  0  0  0  0
    1.0050   18.1590   -5.5710 C   0  0  0  0  0  0  0  0  0  0  0  0
  2  1  1  6
  2  3  1  0
  2  4  1  0
  4  5  1  1
  4  6  1  0
  3  7  1  0
  6  8  1  0
  7  8  1  0
  7  9  1  0
  8 10  1  1
  9 11  1  0
  8 12  1  0
 11 13  1  0
 11 14  1  0
 12 14  1  0
 13 15  1  0
 14 16  2  0
 15 17  1  0
 17 18  1  0
 18 19  1  0
 18 20  1  0
M  END
