mac-x0326-diamond-x0962_1_A
     RDKit          3D

 22 24  0  0  0  0  0  0  0  0999 V2000
   -5.0560   15.7270   -0.0590 Cl  0  0  0  0  0  0  0  0  0  0  0  0
   -3.4410   15.5720   -0.5510 C   0  0  0  0  0  0  0  0  0  0  0  0
   -3.2350   15.1190   -1.7990 C   0  0  0  0  0  0  0  0  0  0  0  0
   -2.4580   15.8950    0.2920 C   0  0  0  0  0  0  0  0  0  0  0  0
   -4.5060   14.8920   -2.2070 C   0  0  0  0  0  0  0  0  0  0  0  0
   -1.9600   14.9660   -2.3430 C   0  0  0  0  0  0  0  0  0  0  0  0
   -1.1630   15.7660   -0.1340 C   0  0  0  0  0  0  0  0  0  0  0  0
   -5.5630   14.7200   -1.7420 C   0  0  0  0  0  0  0  0  0  0  0  0
   -1.5270   14.5340   -3.5900 N   0  0  0  0  0  0  0  0  0  0  0  0
   -0.9370   15.3060   -1.4450 C   0  0  0  0  0  0  0  0  0  0  0  0
   -0.2050   14.5520   -3.6200 C   0  0  0  0  0  0  0  0  0  0  0  0
    0.5740   15.0670   -2.1880 S   0  0  0  0  0  0  0  0  0  0  0  0
   -6.4850   14.5960   -0.6710 C   0  0  0  0  0  0  0  0  0  0  0  0
    0.6360   14.1590   -4.7980 C   0  0  0  0  0  0  0  0  0  0  0  0
   -6.0930   14.2740    0.6190 N   0  0  0  0  0  0  0  0  0  0  0  0
   -7.8340   14.7480   -0.5980 C   0  0  0  0  0  0  0  0  0  0  0  0
    1.2710   12.7840   -4.6120 C   0  0  0  0  0  0  0  0  0  0  0  0
   -7.1990   14.2490    1.4000 C   0  0  0  0  0  0  0  0  0  0  0  0
   -8.2720   14.5300    0.6950 N   0  0  0  0  0  0  0  0  0  0  0  0
    1.0370   12.1950   -3.2430 C   0  0  0  0  0  0  0  0  0  0  0  0
    0.2030   11.1400   -3.2290 O   0  0  0  0  0  0  0  0  0  0  0  0
    1.5390   12.5940   -2.2060 O   0  0  0  0  0  0  0  0  0  0  0  0
  1  2  1  0
  2  3  2  0
  2  4  1  0
  3  5  1  0
  3  6  1  0
  4  7  2  0
  5  8  3  0
  6  9  1  0
  6 10  2  0
  7 10  1  0
  9 11  2  0
 10 12  1  0
 11 12  1  0
  8 13  1  0
 11 14  1  0
 13 15  1  0
 13 16  2  0
 14 17  1  0
 15 18  1  0
 16 19  1  0
 18 19  2  0
 17 20  1  0
 20 21  1  0
 20 22  2  0
M  END
