mac-x0139-mac-x0510
     RDKit          3D

 17 18  0  0  0  0  0  0  0  0999 V2000
   -2.1250   15.0270   -3.4480 C   0  0  0  0  0  0  0  0  0  0  0  0
   -1.0490   14.8070   -2.4880 N   0  0  0  0  0  0  0  0  0  0  0  0
    0.3130   14.9190   -3.0540 C   0  0  0  0  0  0  0  0  0  0  0  0
   -1.2390   14.8030   -1.1050 C   0  0  0  0  0  0  0  0  0  0  0  0
    0.6250   13.7050   -3.9290 C   0  0  0  0  0  0  0  0  0  0  0  0
   -2.5470   14.9030   -0.4420 C   0  0  0  0  0  0  0  0  0  0  0  0
   -0.1950   14.7240   -0.3170 N   0  0  0  0  0  0  0  0  0  0  0  0
    0.9570   12.5190   -3.0660 C   0  0  0  0  0  0  0  0  0  0  0  0
   -2.6020   14.8770    0.9940 C   0  0  0  0  0  0  0  0  0  0  0  0
   -0.3630   14.7140    1.0450 C   0  0  0  0  0  0  0  0  0  0  0  0
   -3.8240   15.0390   -0.7860 C   0  0  0  0  0  0  0  0  0  0  0  0
    1.5770   12.5720   -2.0280 O   0  0  0  0  0  0  0  0  0  0  0  0
    0.4900   11.3520   -3.5580 O   0  0  0  0  0  0  0  0  0  0  0  0
   -1.4650   14.7640    1.6910 N   0  0  0  0  0  0  0  0  0  0  0  0
   -3.7560   14.9760    1.5230 N   0  0  0  0  0  0  0  0  0  0  0  0
   -4.6070   15.0560    0.4650 C   0  0  0  0  0  0  0  0  0  0  0  0
   -5.8240   15.0980    0.4920 O   0  0  0  0  0  0  0  0  0  0  0  0
  1  2  1  0
  2  3  1  0
  2  4  1  0
  3  5  1  0
  4  6  1  0
  4  7  2  0
  5  8  1  0
  6  9  1  0
  7 10  1  0
  6 11  2  0
  8 12  2  0
  8 13  1  0
  9 14  1  0
 10 14  2  0
  9 15  2  0
 11 16  1  0
 15 16  1  0
 16 17  2  0
M  END
