mac-x0228-mac-x0360
     RDKit          3D

 23 25  0  0  0  0  0  0  0  0999 V2000
   -2.2890   13.1310   -3.0040 O   0  0  0  0  0  0  0  0  0  0  0  0
   -2.5470   14.2680   -2.1810 C   0  0  0  0  0  0  0  0  0  0  0  0
   -1.7340   15.3070   -2.7070 O   0  0  0  0  0  0  0  0  0  0  0  0
   -2.5120   13.9100   -0.3320 S   0  0  0  0  0  0  0  0  0  0  0  0
   -4.0150   14.5720   -2.0470 C   0  0  0  0  0  0  0  0  0  0  0  0
   -2.8340   15.1320    0.4030 O   0  0  0  0  0  0  0  0  0  0  0  0
   -1.3020   13.1870   -0.0340 O   0  0  0  0  0  0  0  0  0  0  0  0
   -4.4720   14.4800   -0.7230 C   0  0  0  0  0  0  0  0  0  0  0  0
   -4.9340   14.9090   -3.0530 C   0  0  0  0  0  0  0  0  0  0  0  0
   -3.9470   12.7920   -0.3130 C   0  0  0  0  0  0  0  0  0  0  0  0
   -5.7660   14.6990   -0.4060 C   0  0  0  0  0  0  0  0  0  0  0  0
   -6.2810   15.1400   -2.7030 C   0  0  0  0  0  0  0  0  0  0  0  0
   -4.1180   11.9530   -1.4260 C   0  0  0  0  0  0  0  0  0  0  0  0
   -4.8850   12.7400    0.7400 C   0  0  0  0  0  0  0  0  0  0  0  0
   -6.6640   15.0290   -1.3780 C   0  0  0  0  0  0  0  0  0  0  0  0
   -6.4080   14.6200    0.9220 C   0  0  0  0  0  0  0  0  0  0  0  0
   -5.2090   11.0900   -1.4850 C   0  0  0  0  0  0  0  0  0  0  0  0
   -5.9830   11.8590    0.6490 C   0  0  0  0  0  0  0  0  0  0  0  0
   -7.1660   11.7580    1.9000 Cl  0  0  0  0  0  0  0  0  0  0  0  0
   -5.3970   10.0630   -2.8520 Cl  0  0  0  0  0  0  0  0  0  0  0  0
   -7.9310   15.2230   -0.8910 O   0  0  0  0  0  0  0  0  0  0  0  0
   -7.8670   14.7540    0.4840 C   0  0  0  0  0  0  0  0  0  0  0  0
   -6.1440   11.0390   -0.4630 C   0  0  0  0  0  0  0  0  0  0  0  0
  2  1  1  0
  2  3  1  0
  2  4  1  0
  2  5  1  0
  4  6  2  0
  4  7  2  0
  5  8  2  0
  5  9  1  0
  4 10  1  0
  8 11  1  0
  9 12  2  0
 10 13  2  0
 10 14  1  0
 11 15  2  0
 12 15  1  0
 11 16  1  0
 13 17  1  0
 14 18  2  0
 18 19  1  0
 17 20  1  0
 15 21  1  0
 16 22  1  0
 21 22  1  0
 17 23  2  0
 18 23  1  0
M  END
