mac-x0439-mac-x0496
     RDKit          3D

 32 35  0  0  0  0  0  0  0  0999 V2000
   -3.3970   15.8980   -5.2590 Cl  0  0  0  0  0  0  0  0  0  0  0  0
   -1.8490   16.6040   -5.4100 C   0  0  0  0  0  0  0  0  0  0  0  0
   -0.7290   15.8180   -4.8600 C   0  0  2  0  0  0  0  0  0  0  0  0
   -1.6580   17.7650   -6.0640 C   0  0  0  0  0  0  0  0  0  0  0  0
   -0.4800   15.1090   -3.5580 C   0  0  0  0  0  0  0  0  0  0  0  0
    0.6140   16.4920   -4.9750 C   0  0  0  0  0  0  0  0  0  0  0  0
   -0.3190   18.2860   -6.2930 C   0  0  0  0  0  0  0  0  0  0  0  0
   -1.2990   14.5840   -2.5700 N   0  0  0  0  0  0  0  0  0  0  0  0
    0.8580   15.0740   -3.4220 C   0  0  0  0  0  0  0  0  0  0  0  0
    1.5450   15.9080   -4.2850 N   0  0  0  0  0  0  0  0  0  0  0  0
    0.8000   17.7000   -5.8210 C   0  0  0  0  0  0  0  0  0  0  0  0
    1.5630   14.3410   -2.3510 C   0  0  0  0  0  0  0  0  0  0  0  0
   -2.4910   15.0560   -2.3130 C   0  0  0  0  0  0  0  0  0  0  0  0
    2.9040   14.4500   -2.3960 O   0  0  0  0  0  0  0  0  0  0  0  0
    1.0350   13.6550   -1.4970 O   0  0  0  0  0  0  0  0  0  0  0  0
   -3.0880   15.9400   -3.1250 O   0  0  0  0  0  0  0  0  0  0  0  0
   -3.3300   14.8380   -1.1240 C   0  0  0  0  0  0  0  0  0  0  0  0
   -2.5890   14.7210    0.0660 C   0  0  0  0  0  0  0  0  0  0  0  0
   -4.7240   14.7820   -1.1060 C   0  0  0  0  0  0  0  0  0  0  0  0
   -3.2270   14.5490    1.2800 C   0  0  0  0  0  0  0  0  0  0  0  0
   -5.3650   14.6080    0.1360 C   0  0  0  0  0  0  0  0  0  0  0  0
   -6.8470   14.5520    0.1970 C   0  0  0  0  0  0  0  0  0  0  0  0
   -4.6120   14.4950    1.3130 C   0  0  0  0  0  0  0  0  0  0  0  0
   -7.4030   14.2950    1.4340 N   0  0  0  0  0  0  0  0  0  0  0  0
   -7.5060   14.7300   -0.8130 O   0  0  0  0  0  0  0  0  0  0  0  0
   -8.8360   14.1170    1.5880 C   0  0  0  0  0  0  0  0  0  0  0  0
   -9.4310   15.2320    2.3700 C   0  0  0  0  0  0  0  0  0  0  0  0
  -10.6920   15.6290    2.0150 O   0  0  0  0  0  0  0  0  0  0  0  0
   -8.9410   15.9190    3.3770 N   0  0  0  0  0  0  0  0  0  0  0  0
   -9.9510   16.7920    3.6660 C   0  0  0  0  0  0  0  0  0  0  0  0
  -11.0350   16.6610    2.8890 N   0  0  0  0  0  0  0  0  0  0  0  0
   -9.8510   17.7890    4.7530 C   0  0  0  0  0  0  0  0  0  0  0  0
  1  2  1  0
  3  2  1  1
  2  4  2  0
  3  5  1  0
  3  6  1  0
  4  7  1  0
  5  8  1  0
  5  9  2  0
  6 10  2  0
  9 10  1  0
  6 11  1  0
  7 11  2  0
  9 12  1  0
  8 13  2  3
 12 14  1  0
 12 15  2  0
 13 16  1  0
 13 17  1  0
 17 18  2  0
 17 19  1  0
 18 20  1  0
 19 21  2  0
 21 22  1  0
 20 23  2  0
 21 23  1  0
 22 24  1  0
 22 25  2  0
 24 26  1  0
 26 27  1  0
 27 28  1  0
 27 29  2  0
 29 30  1  0
 28 31  1  0
 30 31  2  0
 30 32  1  0
M  END
