mac-x0263-diamond-x1018_0_A
     RDKit          3D

 18 20  0  0  0  0  0  0  0  0999 V2000
  -11.5280   14.3140    2.2170 O   0  0  0  0  0  0  0  0  0  0  0  0
  -10.8690   15.3400    2.7830 C   0  0  0  0  0  0  0  0  0  0  0  0
  -11.3990   15.9880    3.6620 O   0  0  0  0  0  0  0  0  0  0  0  0
   -9.5030   15.5520    2.1900 C   0  0  0  0  0  0  0  0  0  0  0  0
   -8.8200   14.2300    1.9110 C   0  0  0  0  0  0  0  0  0  0  0  0
   -7.6660   14.3980    0.9950 C   0  0  0  0  0  0  0  0  0  0  0  0
   -7.8350   14.7880   -0.3230 N   0  0  0  0  0  0  0  0  0  0  0  0
   -6.3910   14.2060    1.2980 N   0  0  0  0  0  0  0  0  0  0  0  0
   -6.6040   14.8380   -0.8690 C   0  0  0  0  0  0  0  0  0  0  0  0
   -5.7410   14.4810    0.1290 C   0  0  0  0  0  0  0  0  0  0  0  0
   -6.2350   15.1740   -2.1900 C   0  0  0  0  0  0  0  0  0  0  0  0
   -4.3110   14.4640   -0.2380 C   0  0  0  0  0  0  0  0  0  0  0  0
   -4.9720   15.6030   -2.2890 C   0  0  0  0  0  0  0  0  0  0  0  0
   -4.1360   15.7130   -1.0640 C   0  0  0  0  0  0  0  0  0  0  0  0
   -3.9070   13.3710   -1.0890 N   0  0  0  0  0  0  0  0  0  0  0  0
   -3.3080   14.4530    0.7430 N   0  0  0  0  0  0  0  0  0  0  0  0
   -2.6230   13.8960   -1.4230 N   0  0  0  0  0  0  0  0  0  0  0  0
   -2.2390   14.6040   -0.2390 N   0  0  0  0  0  0  0  0  0  0  0  0
  1  2  1  0
  2  3  2  0
  2  4  1  0
  4  5  1  0
  5  6  1  0
  6  7  1  0
  6  8  2  0
  7  9  1  0
  8 10  1  0
  9 10  2  0
  9 11  1  0
 10 12  1  0
 11 13  2  0
 12 14  1  0
 13 14  1  0
 12 15  1  0
 12 16  1  0
 15 17  1  0
 16 18  1  0
 17 18  1  0
M  END
