mac-x0565-diamond-x0253_0_A
     RDKit          3D

 27 29  0  0  0  0  0  0  0  0999 V2000
   -5.5830   15.0290    0.9270 O   0  0  0  0  0  0  0  0  0  0  0  0
   -6.0650   14.9390   -0.3230 C   0  0  0  0  0  0  0  0  0  0  0  0
   -7.2630   14.8470   -0.5360 O   0  0  0  0  0  0  0  0  0  0  0  0
   -4.9930   14.9700   -1.3420 C   0  0  0  0  0  0  0  0  0  0  0  0
   -3.6540   14.9970   -0.8970 C   0  0  0  0  0  0  0  0  0  0  0  0
   -5.2920   14.9730   -2.7190 C   0  0  0  0  0  0  0  0  0  0  0  0
   -2.6420   15.0300   -1.8400 C   0  0  0  0  0  0  0  0  0  0  0  0
   -4.2650   15.0050   -3.6620 C   0  0  0  0  0  0  0  0  0  0  0  0
   -2.9710   15.0370   -3.1940 C   0  0  0  0  0  0  0  0  0  0  0  0
   -1.2420   15.0680   -1.6740 N   0  0  0  0  0  0  0  0  0  0  0  0
   -0.4830   13.8620   -1.3340 C   0  0  0  0  0  0  0  0  0  0  0  0
   -1.8510   15.0840   -3.9710 O   0  0  0  0  0  0  0  0  0  0  0  0
   -0.9190   15.6280   -2.9970 C   0  0  0  0  0  0  0  0  0  0  0  0
    0.3640   13.6350   -2.4950 N   0  0  0  0  0  0  0  0  0  0  0  0
    0.4890   12.4940   -3.0350 C   0  0  0  0  0  0  0  0  0  0  0  0
   -0.0600   11.3300   -2.6090 O   0  0  0  0  0  0  0  0  0  0  0  0
    1.2940   12.4570   -4.3030 C   0  0  0  0  0  0  0  0  0  0  0  0
    0.5290   11.8260   -5.3720 N   0  0  0  0  0  0  0  0  0  0  0  0
    1.1670   11.6310   -6.5630 C   0  0  0  0  0  0  0  0  0  0  0  0
    2.2410   12.1670   -6.7010 O   0  0  0  0  0  0  0  0  0  0  0  0
    0.5390   10.7370   -7.5900 C   0  0  0  0  0  0  0  0  0  0  0  0
   -0.4340    9.8320   -7.1490 C   0  0  0  0  0  0  0  0  0  0  0  0
    0.8740   10.7620   -8.9510 C   0  0  0  0  0  0  0  0  0  0  0  0
   -1.0650    8.9630   -8.0500 C   0  0  0  0  0  0  0  0  0  0  0  0
    0.2500    9.9000   -9.8520 C   0  0  0  0  0  0  0  0  0  0  0  0
   -2.1080    7.9970   -7.5610 C   0  0  0  0  0  0  0  0  0  0  0  0
   -0.7170    9.0040   -9.4000 C   0  0  0  0  0  0  0  0  0  0  0  0
  1  2  1  0
  2  3  2  0
  2  4  1  0
  4  5  2  0
  4  6  1  0
  5  7  1  0
  6  8  2  0
  7  9  2  0
  8  9  1  0
  7 10  1  0
 10 11  1  0
  9 12  1  0
 10 13  1  0
 12 13  1  0
 11 14  1  0
 14 15  2  3
 15 16  1  0
 15 17  1  0
 17 18  1  0
 18 19  1  0
 19 20  2  0
 19 21  1  0
 21 22  2  0
 21 23  1  0
 22 24  1  0
 23 25  2  0
 24 26  1  0
 24 27  2  0
 25 27  1  0
M  END
