mac-x0522-diamond-x0465_0_A
     RDKit          3D

 28 30  0  0  0  0  0  0  0  0999 V2000
    1.7360    9.2680  -11.2050 O   0  0  0  0  0  0  0  0  0  0  0  0
    2.8180    8.8160  -11.5700 C   0  0  0  0  0  0  0  0  0  0  0  0
    3.3350    7.7320  -10.8970 N   0  0  0  0  0  0  0  0  0  0  0  0
    3.4520    9.5140  -12.7040 C   0  0  0  0  0  0  0  0  0  0  0  0
    2.7530    7.2280   -9.7680 C   0  0  0  0  0  0  0  0  0  0  0  0
    4.5770    9.0070  -13.3540 C   0  0  0  0  0  0  0  0  0  0  0  0
    2.8790   10.7280  -13.1150 C   0  0  0  0  0  0  0  0  0  0  0  0
    3.1060    6.1340   -9.1230 N   0  0  0  0  0  0  0  0  0  0  0  0
    1.4500    8.0810   -9.1290 S   0  0  0  0  0  0  0  0  0  0  0  0
    5.1290    9.7190  -14.4190 C   0  0  0  0  0  0  0  0  0  0  0  0
    3.4360   11.4320  -14.1770 C   0  0  0  0  0  0  0  0  0  0  0  0
    1.2830    6.9620   -7.8840 C   0  0  0  0  0  0  0  0  0  0  0  0
    2.2520    5.9680   -8.0210 C   0  0  0  0  0  0  0  0  0  0  0  0
    4.5590   10.9280  -14.8290 C   0  0  0  0  0  0  0  0  0  0  0  0
    0.1780    7.2720   -6.9390 C   0  0  0  0  0  0  0  0  0  0  0  0
    0.2760    8.7100   -6.7060 O   0  0  0  0  0  0  0  0  0  0  0  0
   -0.8330    9.3680   -6.2500 C   0  0  0  0  0  0  0  0  0  0  0  0
   -0.6730   10.6480   -5.6400 C   0  0  0  0  0  0  0  0  0  0  0  0
   -2.1100    8.8340   -6.3550 C   0  0  0  0  0  0  0  0  0  0  0  0
    0.5840   11.2130   -5.5220 O   0  0  0  0  0  0  0  0  0  0  0  0
   -3.2130    9.5310   -5.8720 C   0  0  0  0  0  0  0  0  0  0  0  0
   -1.7850   11.3400   -5.1580 C   0  0  0  0  0  0  0  0  0  0  0  0
    0.6650   12.4130   -4.7130 C   0  0  2  0  0  0  0  0  0  0  0  0
   -3.0530   10.7780   -5.2750 C   0  0  0  0  0  0  0  0  0  0  0  0
    1.9630   13.1160   -5.0760 C   0  0  0  0  0  0  0  0  0  0  0  0
    0.7120   12.0640   -3.2180 C   0  0  0  0  0  0  0  0  0  0  0  0
    1.0180   12.8580   -2.3370 O   0  0  0  0  0  0  0  0  0  0  0  0
    0.3860   10.7810   -2.9360 O   0  0  0  0  0  0  0  0  0  0  0  0
  1  2  2  0
  2  3  1  0
  2  4  1  0
  3  5  1  0
  4  6  2  0
  4  7  1  0
  5  8  2  0
  5  9  1  0
  6 10  1  0
  7 11  2  0
  9 12  1  0
  8 13  1  0
 12 13  2  0
 10 14  2  0
 11 14  1  0
 12 15  1  0
 15 16  1  0
 16 17  1  0
 17 18  2  0
 17 19  1  0
 18 20  1  0
 19 21  2  0
 18 22  1  0
 20 23  1  0
 21 24  1  0
 22 24  2  0
 23 25  1  6
 23 26  1  0
 26 27  2  0
 26 28  1  0
M  END
