mac-x0381-diamond-x0587_0_A
     RDKit          3D

 24 26  0  0  0  0  0  0  0  0999 V2000
   -8.5280   13.3610    4.8420 N   0  0  0  0  0  0  0  0  0  0  0  0
   -8.6680   13.9160    3.4920 C   0  0  2  0  0  0  0  0  0  0  0  0
   -7.5930   14.9070    3.2100 C   0  0  0  0  0  0  0  0  0  0  0  0
   -9.9380   14.6640    3.2340 C   0  0  0  0  0  0  0  0  0  0  0  0
   -7.3990   15.8360    3.9520 O   0  0  0  0  0  0  0  0  0  0  0  0
   -9.9230   15.5460    2.1380 C   0  0  0  0  0  0  0  0  0  0  0  0
  -11.1020   14.5450    3.9940 C   0  0  0  0  0  0  0  0  0  0  0  0
   -6.8390   14.7860    1.9420 C   0  0  0  0  0  0  0  0  0  0  0  0
  -11.0430   16.2930    1.7810 C   0  0  0  0  0  0  0  0  0  0  0  0
  -12.2310   15.2870    3.6510 C   0  0  0  0  0  0  0  0  0  0  0  0
   -7.3840   14.4260    0.7200 C   0  0  0  0  0  0  0  0  0  0  0  0
   -5.4950   15.0510    1.9200 C   0  0  0  0  0  0  0  0  0  0  0  0
  -12.2190   16.1560    2.5490 C   0  0  0  0  0  0  0  0  0  0  0  0
  -11.0260   17.1650    0.6820 C   0  0  0  0  0  0  0  0  0  0  0  0
   -6.6620   14.3360   -0.4230 N   0  0  0  0  0  0  0  0  0  0  0  0
   -4.7290   14.9740    0.8180 N   0  0  0  0  0  0  0  0  0  0  0  0
  -13.3530   16.8890    2.1920 C   0  0  0  0  0  0  0  0  0  0  0  0
  -12.1660   17.8900    0.3400 C   0  0  0  0  0  0  0  0  0  0  0  0
   -5.3390   14.6190   -0.3300 C   0  0  0  0  0  0  0  0  0  0  0  0
   -4.4670   14.5400   -1.5760 C   0  0  0  0  0  0  0  0  0  0  0  0
  -13.3280   17.7500    1.0940 C   0  0  0  0  0  0  0  0  0  0  0  0
   -3.1810   14.9350   -1.3470 F   0  0  0  0  0  0  0  0  0  0  0  0
   -4.3690   13.2790   -2.0920 F   0  0  0  0  0  0  0  0  0  0  0  0
   -4.9190   15.3170   -2.5990 F   0  0  0  0  0  0  0  0  0  0  0  0
  2  1  1  1
  2  3  1  0
  2  4  1  0
  3  5  2  0
  4  6  2  0
  4  7  1  0
  3  8  1  0
  6  9  1  0
  7 10  2  0
  8 11  2  0
  8 12  1  0
  9 13  2  0
 10 13  1  0
  9 14  1  0
 11 15  1  0
 12 16  2  0
 13 17  1  0
 14 18  2  0
 15 19  2  0
 16 19  1  0
 19 20  1  0
 17 21  2  0
 18 21  1  0
 20 22  1  0
 20 23  1  0
 20 24  1  0
M  END
