mac-x0572-diamond-x0805_0_A
     RDKit          3D

 30 33  0  0  0  0  0  0  0  0999 V2000
   -7.7100   14.5810    3.2210 C   0  0  0  0  0  0  0  0  0  0  0  0
   -7.2890   14.6340    1.7680 C   0  0  0  0  0  0  0  0  0  0  0  0
   -5.9380   14.8190    1.5990 N   0  0  0  0  0  0  0  0  0  0  0  0
   -8.1570   14.5130    0.7400 C   0  0  0  0  0  0  0  0  0  0  0  0
   -9.5170   14.3270    0.8490 O   0  0  0  0  0  0  0  0  0  0  0  0
   -7.5840   14.5980   -0.6440 C   0  0  0  0  0  0  0  0  0  0  0  0
   -5.4820   15.1860    0.4310 C   0  0  0  0  0  0  0  0  0  0  0  0
   -8.0990   14.0220   -1.5940 O   0  0  0  0  0  0  0  0  0  0  0  0
   -6.3610   15.4360   -0.7740 C   0  0  1  0  0  0  0  0  0  0  0  0
   -4.0520   15.3620    0.2070 C   0  0  0  0  0  0  0  0  0  0  0  0
   -3.1220   15.4150    1.2660 C   0  0  0  0  0  0  0  0  0  0  0  0
   -3.5620   15.4280   -1.0170 C   0  0  0  0  0  0  0  0  0  0  0  0
   -5.6490   15.3270   -2.0900 C   0  0  0  0  0  0  0  0  0  0  0  0
   -2.1250   14.5990    0.6900 O   0  0  0  0  0  0  0  0  0  0  0  0
   -4.3370   15.3400   -2.1860 C   0  0  0  0  0  0  0  0  0  0  0  0
   -2.4260   14.0820   -0.5690 C   0  0  0  0  0  0  0  0  0  0  0  0
   -3.6000   13.4230   -0.9730 C   0  0  0  0  0  0  0  0  0  0  0  0
   -1.4080   14.2610   -1.5090 C   0  0  0  0  0  0  0  0  0  0  0  0
   -3.7410   12.9630   -2.2880 C   0  0  0  0  0  0  0  0  0  0  0  0
   -1.5260   13.8040   -2.8230 C   0  0  0  0  0  0  0  0  0  0  0  0
   -2.7090   13.1530   -3.2070 C   0  0  0  0  0  0  0  0  0  0  0  0
   -0.4140   13.9730   -3.8410 C   0  0  2  0  0  0  0  0  0  0  0  0
    0.8170   13.2410   -3.3290 C   0  0  1  0  0  0  0  0  0  0  0  0
    0.0660   15.3710   -4.2130 C   0  0  0  0  0  0  0  0  0  0  0  0
    0.4760   12.0960   -2.4250 C   0  0  0  0  0  0  0  0  0  0  0  0
    1.7910   12.9560   -4.4210 C   0  0  0  0  0  0  0  0  0  0  0  0
    1.5660   15.3800   -4.4830 C   0  0  0  0  0  0  0  0  0  0  0  0
    0.2650   10.9100   -3.0410 O   0  0  0  0  0  0  0  0  0  0  0  0
    0.3920   12.2340   -1.2270 O   0  0  0  0  0  0  0  0  0  0  0  0
    2.0410   14.1660   -5.0910 O   0  0  0  0  0  0  0  0  0  0  0  0
  1  2  1  0
  2  3  1  0
  2  4  2  0
  4  5  1  0
  4  6  1  0
  3  7  2  0
  6  8  2  0
  6  9  1  0
  7  9  1  0
  7 10  1  0
 10 11  1  0
 10 12  2  0
  9 13  1  6
 11 14  1  0
 12 15  1  0
 13 15  2  0
 14 16  1  0
 16 17  2  0
 16 18  1  0
 17 19  1  0
 18 20  2  0
 19 21  2  0
 20 21  1  0
 22 20  1  1
 22 23  1  0
 22 24  1  0
 23 25  1  6
 23 26  1  0
 24 27  1  0
 25 28  1  0
 25 29  2  0
 26 30  1  0
 27 30  1  0
M  END
