mac-x0142-mac-x0231
     RDKit          3D

 27 31  0  0  0  0  0  0  0  0999 V2000
    0.0690   11.0050   -4.9750 O   0  0  0  0  0  0  0  0  0  0  0  0
    1.0100   11.8500   -4.5230 C   0  0  0  0  0  0  0  0  0  0  0  0
    1.3470   11.7860   -3.3530 O   0  0  0  0  0  0  0  0  0  0  0  0
    1.5450   12.7900   -5.5720 C   0  0  0  0  0  0  0  0  0  0  0  0
    0.9680   14.1980   -5.3320 C   0  0  1  0  0  0  0  0  0  0  0  0
   -0.0550   14.2390   -4.2170 C   0  0  2  0  0  0  0  0  0  0  0  0
    1.9340   15.1610   -4.7990 N   0  0  0  0  0  0  0  0  0  0  0  0
    0.6970   13.5530   -3.0440 C   0  0  0  0  0  0  0  0  0  0  0  0
   -1.3810   13.4550   -4.5010 C   0  0  0  0  0  0  0  0  0  0  0  0
   -0.4650   15.7070   -3.9320 C   0  0  0  0  0  0  0  0  0  0  0  0
    1.5130   16.4600   -5.0530 N   0  0  0  0  0  0  0  0  0  0  0  0
    2.2070   13.2190   -3.1450 C   0  0  0  0  0  0  0  0  0  0  0  0
    1.7380   14.2600   -2.1930 C   0  0  0  0  0  0  0  0  0  0  0  0
   -2.2790   13.4940   -3.2750 C   0  0  0  0  0  0  0  0  0  0  0  0
   -0.2070   12.5870   -2.3450 C   0  0  0  0  0  0  0  0  0  0  0  0
    0.2320   16.7580   -4.7550 C   0  0  0  0  0  0  0  0  0  0  0  0
   -0.2990   17.8010   -5.1300 O   0  0  0  0  0  0  0  0  0  0  0  0
   -1.4340   13.3040   -2.0970 N   0  0  0  0  0  0  0  0  0  0  0  0
   -1.5820   13.9220   -0.8950 C   0  0  0  0  0  0  0  0  0  0  0  0
   -0.5410   13.8730    0.0090 N   0  0  0  0  0  0  0  0  0  0  0  0
   -2.6710   14.5820   -0.5260 C   0  0  0  0  0  0  0  0  0  0  0  0
   -0.6820   14.3520    1.2690 C   0  0  0  0  0  0  0  0  0  0  0  0
   -2.7340   15.1510    0.8250 C   0  0  0  0  0  0  0  0  0  0  0  0
   -3.9240   14.9260   -1.1110 C   0  0  0  0  0  0  0  0  0  0  0  0
   -1.7100   14.9760    1.7180 N   0  0  0  0  0  0  0  0  0  0  0  0
   -3.8630   15.7730    1.0280 N   0  0  0  0  0  0  0  0  0  0  0  0
   -4.5560   15.6260   -0.1650 C   0  0  0  0  0  0  0  0  0  0  0  0
  1  2  1  0
  2  3  2  0
  2  4  1  0
  5  4  1  1
  5  6  1  0
  5  7  1  0
  6  8  1  0
  6  9  1  6
  6 10  1  0
  7 11  1  0
  8 12  1  0
  8 13  1  0
 12 13  1  0
  9 14  1  0
  8 15  1  0
 10 16  1  0
 11 16  1  0
 16 17  2  0
 14 18  1  0
 15 18  1  0
 18 19  1  0
 19 20  1  0
 19 21  2  0
 20 22  1  0
 21 23  1  0
 21 24  1  0
 22 25  2  0
 23 25  1  0
 23 26  2  0
 24 27  2  0
 26 27  1  0
M  END
