mac-x0417-mac-x0371
     RDKit          3D

 21 23  0  0  0  0  0  0  0  0999 V2000
    0.3420   12.1810   -1.7920 O   0  0  0  0  0  0  0  0  0  0  0  0
    0.2490   11.3640   -2.8870 C   0  0  0  0  0  0  0  0  0  0  0  0
    0.0630   10.1790   -2.6880 O   0  0  0  0  0  0  0  0  0  0  0  0
    0.4590   12.0740   -4.2110 C   0  0  1  0  0  0  0  0  0  0  0  0
    0.2020   11.4120   -5.5390 C   0  0  0  0  0  0  0  0  0  0  0  0
    0.4360   13.5680   -4.2510 C   0  0  0  0  0  0  0  0  0  0  0  0
    1.0490   11.6090   -6.5670 N   0  0  0  0  0  0  0  0  0  0  0  0
   -0.8440   10.5350   -5.9160 C   0  0  0  0  0  0  0  0  0  0  0  0
   -0.6600   14.4520   -4.4450 C   0  0  0  0  0  0  0  0  0  0  0  0
    1.6700   14.1030   -4.0560 C   0  0  0  0  0  0  0  0  0  0  0  0
    3.0310   13.0700   -3.8060 Cl  0  0  0  0  0  0  0  0  0  0  0  0
   -2.3010   13.9550   -4.6860 Cl  0  0  0  0  0  0  0  0  0  0  0  0
    0.5700   10.8540   -7.6190 O   0  0  0  0  0  0  0  0  0  0  0  0
   -0.5570   10.2130   -7.2300 C   0  0  0  0  0  0  0  0  0  0  0  0
   -1.9790    9.9790   -5.3140 C   0  0  0  0  0  0  0  0  0  0  0  0
   -0.4450   15.8440   -4.4430 C   0  0  0  0  0  0  0  0  0  0  0  0
    1.8750   15.4520   -4.0440 C   0  0  0  0  0  0  0  0  0  0  0  0
   -1.3250    9.3560   -8.0120 C   0  0  0  0  0  0  0  0  0  0  0  0
   -2.7760    9.1130   -6.0720 C   0  0  0  0  0  0  0  0  0  0  0  0
    0.8350   16.3460   -4.2420 C   0  0  0  0  0  0  0  0  0  0  0  0
   -2.4540    8.8070   -7.3950 C   0  0  0  0  0  0  0  0  0  0  0  0
  1  2  1  0
  2  3  2  0
  4  2  1  1
  4  5  1  0
  4  6  1  0
  5  7  2  0
  5  8  1  0
  6  9  2  0
  6 10  1  0
 10 11  1  0
  9 12  1  0
  7 13  1  0
  8 14  2  0
 13 14  1  0
  8 15  1  0
  9 16  1  0
 10 17  2  0
 14 18  1  0
 15 19  2  0
 16 20  2  0
 17 20  1  0
 18 21  2  0
 19 21  1  0
M  END
