mac-x0417-mac-x0402
     RDKit          3D

 26 29  0  0  0  0  0  0  0  0999 V2000
    1.4250   12.8120   -2.4620 O   0  0  0  0  0  0  0  0  0  0  0  0
    0.7260   11.9510   -3.2220 C   0  0  0  0  0  0  0  0  0  0  0  0
    0.7170   10.7700   -2.9280 O   0  0  0  0  0  0  0  0  0  0  0  0
   -0.0050   12.5570   -4.3940 C   0  0  1  0  0  0  0  0  0  0  0  0
    0.2000   14.0800   -4.4230 C   0  0  0  0  0  0  0  0  0  0  0  0
    0.1180   11.7200   -5.6430 C   0  0  0  0  0  0  0  0  0  0  0  0
   -0.5650   14.8090   -3.2910 C   0  0  0  0  0  0  0  0  0  0  0  0
    1.1250   11.7970   -6.5250 N   0  0  0  0  0  0  0  0  0  0  0  0
   -0.8210   10.7330   -6.0300 C   0  0  0  0  0  0  0  0  0  0  0  0
   -2.0540   14.9940   -3.6350 C   0  0  0  0  0  0  0  0  0  0  0  0
    0.8440   10.8510   -7.5070 O   0  0  0  0  0  0  0  0  0  0  0  0
   -0.3190   10.2160   -7.2060 C   0  0  0  0  0  0  0  0  0  0  0  0
   -2.0240   10.2270   -5.5190 C   0  0  0  0  0  0  0  0  0  0  0  0
   -0.9360    9.2030   -7.9360 C   0  0  0  0  0  0  0  0  0  0  0  0
   -2.6740    9.2100   -6.2240 C   0  0  0  0  0  0  0  0  0  0  0  0
   -3.1040   15.0000   -2.5280 C   0  0  0  0  0  0  0  0  0  0  0  0
   -2.1380    8.7070   -7.4130 C   0  0  0  0  0  0  0  0  0  0  0  0
   -4.4370   15.0130   -2.9430 C   0  0  0  0  0  0  0  0  0  0  0  0
   -2.8250   14.9950   -1.1430 C   0  0  0  0  0  0  0  0  0  0  0  0
   -3.9090   15.0080   -0.2410 C   0  0  0  0  0  0  0  0  0  0  0  0
   -5.4900   15.0200   -2.0430 C   0  0  0  0  0  0  0  0  0  0  0  0
   -5.2320   15.0150   -0.6760 C   0  0  0  0  0  0  0  0  0  0  0  0
   -3.9220   15.0220    1.4720 S   0  0  0  0  0  0  0  0  0  0  0  0
   -5.6490   15.0160    1.4630 C   0  0  0  0  0  0  0  0  0  0  0  0
   -6.1980   15.0130    0.2950 N   0  0  0  0  0  0  0  0  0  0  0  0
   -6.4030   15.0190    2.5750 N   0  0  0  0  0  0  0  0  0  0  0  0
  1  2  1  0
  2  3  2  0
  2  4  1  0
  4  5  1  6
  4  6  1  0
  5  7  1  0
  6  8  2  0
  6  9  1  0
  7 10  1  0
  8 11  1  0
  9 12  2  0
 11 12  1  0
  9 13  1  0
 12 14  1  0
 13 15  2  0
 10 16  1  0
 14 17  2  0
 15 17  1  0
 16 18  2  0
 16 19  1  0
 19 20  2  0
 18 21  1  0
 20 22  1  0
 21 22  2  0
 20 23  1  0
 23 24  1  0
 22 25  1  0
 24 25  2  0
 24 26  1  0
M  END
