mac-x0437-mac-x0496
     RDKit          3D

 35 38  0  0  0  0  0  0  0  0999 V2000
    1.5510   12.8790   -2.0400 O   0  0  0  0  0  0  0  0  0  0  0  0
    1.2670   12.1910   -3.1560 C   0  0  0  0  0  0  0  0  0  0  0  0
    0.7090   11.1050   -3.1060 O   0  0  0  0  0  0  0  0  0  0  0  0
    1.6730   12.8740   -4.4350 C   0  0  0  0  0  0  0  0  0  0  0  0
    0.4950   13.3060   -5.3050 C   0  0  2  0  0  0  0  0  0  0  0  0
   -0.0890   14.6920   -4.9120 C   0  0  0  0  0  0  0  0  0  0  0  0
   -0.3990   12.1480   -5.5600 N   0  0  0  0  0  0  0  0  0  0  0  0
   -1.5740   14.7580   -4.5480 C   0  0  0  0  0  0  0  0  0  0  0  0
   -1.5650   11.8660   -4.8800 C   0  0  0  0  0  0  0  0  0  0  0  0
   -0.2330   11.1500   -6.5000 C   0  0  0  0  0  0  0  0  0  0  0  0
   -1.7450   14.5720   -3.1030 N   0  0  0  0  0  0  0  0  0  0  0  0
   -2.1420   10.7660   -5.3190 N   0  0  0  0  0  0  0  0  0  0  0  0
   -1.3320   10.3060   -6.3200 C   0  0  0  0  0  0  0  0  0  0  0  0
    0.7350   10.8880   -7.4700 C   0  0  0  0  0  0  0  0  0  0  0  0
   -2.8280   14.9410   -2.5360 C   0  0  0  0  0  0  0  0  0  0  0  0
   -1.4720    9.1620   -7.1240 C   0  0  0  0  0  0  0  0  0  0  0  0
    0.5840    9.7440   -8.2660 C   0  0  0  0  0  0  0  0  0  0  0  0
   -3.7370   15.5080   -3.3410 O   0  0  0  0  0  0  0  0  0  0  0  0
   -0.5050    8.8910   -8.0950 C   0  0  0  0  0  0  0  0  0  0  0  0
   -3.3490   14.8830   -1.1580 C   0  0  0  0  0  0  0  0  0  0  0  0
   -2.5030   14.9000   -0.0450 C   0  0  0  0  0  0  0  0  0  0  0  0
   -4.7320   14.8000   -0.9870 C   0  0  0  0  0  0  0  0  0  0  0  0
   -3.0450   14.8400    1.2380 C   0  0  0  0  0  0  0  0  0  0  0  0
   -5.2730   14.7330    0.2970 C   0  0  0  0  0  0  0  0  0  0  0  0
   -6.7460   14.6320    0.4920 C   0  0  0  0  0  0  0  0  0  0  0  0
   -4.4250   14.7570    1.4040 C   0  0  0  0  0  0  0  0  0  0  0  0
   -7.2340   14.3330    1.7540 N   0  0  0  0  0  0  0  0  0  0  0  0
   -7.4850   14.8100   -0.4680 O   0  0  0  0  0  0  0  0  0  0  0  0
   -8.6480   14.0370    1.9160 C   0  0  0  0  0  0  0  0  0  0  0  0
   -9.3310   15.1960    2.5410 C   0  0  0  0  0  0  0  0  0  0  0  0
  -10.4990   15.6330    1.9790 O   0  0  0  0  0  0  0  0  0  0  0  0
   -8.9680   15.8900    3.5970 N   0  0  0  0  0  0  0  0  0  0  0  0
   -9.9680   16.8130    3.6990 C   0  0  0  0  0  0  0  0  0  0  0  0
  -10.9200   16.7100    2.7650 N   0  0  0  0  0  0  0  0  0  0  0  0
   -9.9810   17.8300    4.7660 C   0  0  0  0  0  0  0  0  0  0  0  0
  1  2  1  0
  2  3  2  0
  2  4  1  0
  5  4  1  1
  5  6  1  0
  5  7  1  0
  6  8  1  0
  7  9  1  0
  7 10  1  0
  8 11  1  0
  9 12  2  0
 10 13  2  0
 12 13  1  0
 10 14  1  0
 11 15  2  3
 13 16  1  0
 14 17  2  0
 15 18  1  0
 16 19  2  0
 17 19  1  0
 15 20  1  0
 20 21  2  0
 20 22  1  0
 21 23  1  0
 22 24  2  0
 24 25  1  0
 23 26  2  0
 24 26  1  0
 25 27  1  0
 25 28  2  0
 27 29  1  0
 29 30  1  0
 30 31  1  0
 30 32  2  0
 32 33  1  0
 31 34  1  0
 33 34  2  0
 33 35  1  0
M  END
