mac-x0404-diamond-x0742_0_A
     RDKit          3D

 33 37  0  0  0  0  0  0  0  0999 V2000
    2.4440   12.4090   -2.2800 O   0  0  0  0  0  0  0  0  0  0  0  0
    1.3080   12.6600   -3.0290 C   0  0  0  0  0  0  0  0  0  0  0  0
    0.4380   11.5490   -2.7770 O   0  0  0  0  0  0  0  0  0  0  0  0
    1.5990   12.7210   -4.5290 C   0  0  0  0  0  0  0  0  0  0  0  0
    0.7270   13.9860   -2.5430 C   0  0  0  0  0  0  0  0  0  0  0  0
    1.3220   14.0340   -4.9800 O   0  0  0  0  0  0  0  0  0  0  0  0
    0.9970   14.3800   -1.1000 C   0  0  0  0  0  0  0  0  0  0  0  0
    0.0070   14.4550   -5.0180 C   0  0  0  0  0  0  0  0  0  0  0  0
   -0.2570   14.3800   -0.3220 C   0  0  0  0  0  0  0  0  0  0  0  0
   -0.1680   15.8420   -5.1770 C   0  0  0  0  0  0  0  0  0  0  0  0
   -1.1150   13.6290   -4.9210 C   0  0  0  0  0  0  0  0  0  0  0  0
   -0.3450   14.3380    1.0670 C   0  0  0  0  0  0  0  0  0  0  0  0
   -1.4300   14.4220   -1.0430 C   0  0  0  0  0  0  0  0  0  0  0  0
   -1.4650   16.3920   -5.2480 C   0  0  0  0  0  0  0  0  0  0  0  0
   -2.4000   14.1750   -4.9840 C   0  0  0  0  0  0  0  0  0  0  0  0
    0.9180   16.7080   -5.2770 C   0  0  0  0  0  0  0  0  0  0  0  0
   -1.5030   14.3280    1.7350 N   0  0  0  0  0  0  0  0  0  0  0  0
   -2.6400   14.4140   -0.4050 C   0  0  0  0  0  0  0  0  0  0  0  0
   -2.5730   15.5490   -5.1480 C   0  0  0  0  0  0  0  0  0  0  0  0
   -1.6200   17.7690   -5.4240 C   0  0  0  0  0  0  0  0  0  0  0  0
    0.7610   18.0760   -5.4490 C   0  0  0  0  0  0  0  0  0  0  0  0
   -3.8960   14.4650   -1.2520 C   0  0  0  0  0  0  0  0  0  0  0  0
   -2.6260   14.3580    0.9860 C   0  0  0  0  0  0  0  0  0  0  0  0
   -0.5180   18.6040   -5.5260 C   0  0  0  0  0  0  0  0  0  0  0  0
   -5.1670   14.0690   -0.4710 C   0  0  1  0  0  0  0  0  0  0  0  0
   -3.8890   14.3220    1.7600 C   0  0  0  0  0  0  0  0  0  0  0  0
   -5.4250   12.5420   -0.6330 C   0  0  0  0  0  0  0  0  0  0  0  0
   -5.0890   14.7070    0.9220 C   0  0  2  0  0  0  0  0  0  0  0  0
   -6.4420   14.7780   -0.9500 C   0  0  0  0  0  0  0  0  0  0  0  0
   -4.9360   11.9040   -1.5770 O   0  0  0  0  0  0  0  0  0  0  0  0
   -6.2980   11.8110    0.3540 C   0  0  0  0  0  0  0  0  0  0  0  0
   -6.4830   14.4670    1.4880 C   0  0  0  0  0  0  0  0  0  0  0  0
   -7.3920   14.6190    0.2520 C   0  0  0  0  0  0  0  0  0  0  0  0
  2  1  1  0
  2  3  1  0
  2  4  1  0
  2  5  1  0
  4  6  1  0
  5  7  1  0
  6  8  1  0
  7  9  1  0
  8 10  1  0
  8 11  2  0
  9 12  2  0
  9 13  1  0
 10 14  2  0
 11 15  1  0
 10 16  1  0
 12 17  1  0
 13 18  2  0
 14 19  1  0
 15 19  2  0
 14 20  1  0
 16 21  2  0
 18 22  1  0
 17 23  2  0
 18 23  1  0
 20 24  2  0
 21 24  1  0
 22 25  1  0
 23 26  1  0
 25 27  1  1
 25 28  1  0
 28 26  1  1
 25 29  1  0
 27 30  2  0
 27 31  1  0
 28 32  1  0
 29 33  1  0
 32 33  1  0
M  END
