mac-x0161-mac-x0375
     RDKit          3D

 28 31  0  0  0  0  0  0  0  0999 V2000
   -4.3700   14.3040    0.8070 N   0  0  0  0  0  0  0  0  0  0  0  0
   -3.6580   15.5100    0.4080 C   0  0  1  0  0  0  0  0  0  0  0  0
   -2.1260   15.4770    0.6370 C   0  0  2  0  0  0  0  0  0  0  0  0
   -4.0340   15.7120   -0.9590 N   0  0  0  0  0  0  0  0  0  0  0  0
   -3.3970   14.8500   -1.9310 C   0  0  0  0  0  0  0  0  0  0  0  0
   -1.3260   15.4860   -0.6660 C   0  0  2  0  0  0  0  0  0  0  0  0
   -1.6520   14.2980    1.3630 N   0  0  0  0  0  0  0  0  0  0  0  0
   -1.9390   14.8860   -1.8380 N   0  0  0  0  0  0  0  0  0  0  0  0
   -0.1280   14.6990   -0.3520 N   0  0  0  0  0  0  0  0  0  0  0  0
   -0.2450   14.2800    1.0350 C   0  0  0  0  0  0  0  0  0  0  0  0
   -1.2580   15.1790   -3.0970 C   0  0  0  0  0  0  0  0  0  0  0  0
   -0.5960   13.9150   -3.6570 C   0  0  2  0  0  0  0  0  0  0  0  0
   -1.5760   12.8660   -4.1530 C   0  0  0  0  0  0  0  0  0  0  0  0
    0.1670   13.2660   -2.6310 O   0  0  0  0  0  0  0  0  0  0  0  0
    0.2400   11.8550   -2.9960 N   0  0  0  0  0  0  0  0  0  0  0  0
   -1.0950   11.5900   -3.4900 C   0  0  2  0  0  0  0  0  0  0  0  0
   -1.2070   10.4400   -4.2970 O   0  0  0  0  0  0  0  0  0  0  0  0
    1.3480   11.7620   -3.9340 C   0  0  0  0  0  0  0  0  0  0  0  0
    2.4070   12.4750   -3.3190 O   0  0  0  0  0  0  0  0  0  0  0  0
    1.7770   10.4230   -3.9320 O   0  0  0  0  0  0  0  0  0  0  0  0
    1.2140   12.2380   -5.4230 C   0  0  0  0  0  0  0  0  0  0  0  0
    0.9630   11.1530   -6.3320 O   0  0  0  0  0  0  0  0  0  0  0  0
   -0.3090   10.6410   -6.3720 C   0  0  0  0  0  0  0  0  0  0  0  0
   -0.3770    9.2520   -6.4840 C   0  0  0  0  0  0  0  0  0  0  0  0
   -1.5010   11.3720   -6.3100 C   0  0  0  0  0  0  0  0  0  0  0  0
   -1.6030    8.5890   -6.5280 C   0  0  0  0  0  0  0  0  0  0  0  0
   -2.7350   10.7090   -6.3520 C   0  0  0  0  0  0  0  0  0  0  0  0
   -2.7870    9.3230   -6.4600 C   0  0  0  0  0  0  0  0  0  0  0  0
  2  1  1  6
  2  3  1  0
  2  4  1  0
  4  5  1  0
  3  6  1  0
  3  7  1  6
  5  8  1  0
  6  8  1  0
  6  9  1  1
  7 10  1  0
  9 10  1  0
  8 11  1  0
 12 11  1  1
 12 13  1  0
 12 14  1  0
 14 15  1  0
 13 16  1  0
 15 16  1  0
 16 17  1  6
 15 18  1  0
 18 19  1  0
 18 20  1  0
 18 21  1  0
 21 22  1  0
 22 23  1  0
 23 24  2  0
 23 25  1  0
 24 26  1  0
 25 27  2  0
 26 28  2  0
 27 28  1  0
M  END
