mac-x0255-diamond-x0626_0_A
     RDKit          3D

 27 29  0  0  0  0  0  0  0  0999 V2000
    2.1880   12.4490   -2.1930 O   0  0  0  0  0  0  0  0  0  0  0  0
    0.8840   12.4360   -2.6840 C   0  0  0  0  0  0  0  0  0  0  0  0
    0.3910   11.1120   -2.5090 O   0  0  0  0  0  0  0  0  0  0  0  0
    1.0070   12.7660   -4.1790 C   0  0  0  0  0  0  0  0  0  0  0  0
    0.1450   13.4360   -1.7960 C   0  0  0  0  0  0  0  0  0  0  0  0
    1.0950   14.4840   -1.2000 C   0  0  0  0  0  0  0  0  0  0  0  0
    0.4220   14.0950   -4.5230 C   0  0  0  0  0  0  0  0  0  0  0  0
    0.5520   15.1720    0.0590 C   0  0  0  0  0  0  0  0  0  0  0  0
    1.0690   15.2940   -4.7070 C   0  0  0  0  0  0  0  0  0  0  0  0
   -1.2630   14.2370   -4.7350 S   0  0  0  0  0  0  0  0  0  0  0  0
   -0.2660   14.3050    0.9730 C   0  0  0  0  0  0  0  0  0  0  0  0
    0.1710   16.3560   -5.0400 C   0  0  0  0  0  0  0  0  0  0  0  0
   -1.1520   15.9080   -5.0880 C   0  0  0  0  0  0  0  0  0  0  0  0
    0.4270   17.7100   -5.3140 C   0  0  0  0  0  0  0  0  0  0  0  0
   -2.2190   16.7700   -5.4000 C   0  0  0  0  0  0  0  0  0  0  0  0
   -1.6570   14.5320    0.5640 C   0  0  0  0  0  0  0  0  0  0  0  0
   -0.6280   18.5670   -5.6310 C   0  0  0  0  0  0  0  0  0  0  0  0
   -1.9280   18.1030   -5.6720 C   0  0  0  0  0  0  0  0  0  0  0  0
   -2.6200   14.6060    1.5320 N   0  0  0  0  0  0  0  0  0  0  0  0
   -2.0840   14.6830   -0.7400 C   0  0  0  0  0  0  0  0  0  0  0  0
   -3.7720   14.8050    0.9280 C   0  0  0  0  0  0  0  0  0  0  0  0
   -3.7670   14.9290   -0.7750 S   0  0  0  0  0  0  0  0  0  0  0  0
   -5.0040   14.9250    1.4740 N   0  0  0  0  0  0  0  0  0  0  0  0
   -6.1720   14.7080    0.8080 C   0  0  0  0  0  0  0  0  0  0  0  0
   -6.1930   14.8300   -0.4210 O   0  0  0  0  0  0  0  0  0  0  0  0
   -7.4070   14.3310    1.5990 C   0  0  0  0  0  0  0  0  0  0  0  0
   -8.6900   14.6480    0.8490 C   0  0  0  0  0  0  0  0  0  0  0  0
  2  1  1  0
  2  3  1  0
  2  4  1  0
  2  5  1  0
  5  6  1  0
  4  7  1  0
  6  8  1  0
  7  9  2  0
  7 10  1  0
  8 11  1  0
  9 12  1  0
 10 13  1  0
 12 13  2  0
 12 14  1  0
 13 15  1  0
 11 16  1  0
 14 17  2  0
 15 18  2  0
 17 18  1  0
 16 19  1  0
 16 20  2  0
 19 21  2  0
 20 22  1  0
 21 22  1  0
 21 23  1  0
 23 24  1  0
 24 25  2  0
 24 26  1  0
 26 27  1  0
M  END
