mac-x0572-mac-x0123
     RDKit          3D

 16 18  0  0  0  0  0  0  0  0999 V2000
   -7.9760   14.6350    3.4560 C   0  0  0  0  0  0  0  0  0  0  0  0
   -7.2440   14.7150    2.1370 C   0  0  0  0  0  0  0  0  0  0  0  0
   -5.8730   14.8760    2.2720 N   0  0  0  0  0  0  0  0  0  0  0  0
   -7.9010   14.6290    0.9650 C   0  0  0  0  0  0  0  0  0  0  0  0
   -9.2710   14.4600    0.8670 O   0  0  0  0  0  0  0  0  0  0  0  0
   -7.1380   14.7200   -0.3030 C   0  0  0  0  0  0  0  0  0  0  0  0
   -5.1280   14.9280    1.2150 C   0  0  0  0  0  0  0  0  0  0  0  0
   -7.7200   14.6920   -1.3810 O   0  0  0  0  0  0  0  0  0  0  0  0
   -5.6940   14.8430   -0.1470 C   0  0  0  0  0  0  0  0  0  0  0  0
   -3.6370   15.0650    1.3550 C   0  0  0  0  0  0  0  0  0  0  0  0
   -2.8380   15.0860    0.2800 C   0  0  0  0  0  0  0  0  0  0  0  0
   -4.8740   14.8760   -1.1630 C   0  0  0  0  0  0  0  0  0  0  0  0
   -3.4560   14.9800   -1.0070 C   0  0  0  0  0  0  0  0  0  0  0  0
   -5.0810   14.8080   -2.5970 C   0  0  0  0  0  0  0  0  0  0  0  0
   -3.9530   14.8280   -3.2410 N   0  0  0  0  0  0  0  0  0  0  0  0
   -2.9770   14.9340   -2.2570 C   0  0  0  0  0  0  0  0  0  0  0  0
  1  2  1  0
  2  3  1  0
  2  4  2  0
  4  5  1  0
  4  6  1  0
  3  7  2  0
  6  8  2  0
  6  9  1  0
  7  9  1  0
  7 10  1  0
 10 11  2  0
  9 12  2  0
 11 13  1  0
 12 13  1  0
 12 14  1  0
 14 15  2  0
 13 16  2  0
 15 16  1  0
M  END
