mac-x0338-mac-x0381
     RDKit          3D

 23 25  0  0  0  0  0  0  0  0999 V2000
   -3.7530   15.1980    1.8350 N   0  0  0  0  0  0  0  0  0  0  0  0
   -4.7890   14.9760    0.9610 C   0  0  0  0  0  0  0  0  0  0  0  0
   -5.9450   14.7440    1.4090 N   0  0  0  0  0  0  0  0  0  0  0  0
   -4.4700   15.0080   -0.4670 C   0  0  0  0  0  0  0  0  0  0  0  0
   -6.2470   14.6880    2.7880 C   0  0  0  0  0  0  0  0  0  0  0  0
   -3.1530   14.9230   -0.7660 N   0  0  0  0  0  0  0  0  0  0  0  0
   -5.4680   15.1080   -1.4160 C   0  0  0  0  0  0  0  0  0  0  0  0
   -7.5860   15.1080    2.8620 N   0  0  0  0  0  0  0  0  0  0  0  0
   -2.8890   14.9440   -2.0850 C   0  0  0  0  0  0  0  0  0  0  0  0
   -5.1930   15.1230   -2.7340 N   0  0  0  0  0  0  0  0  0  0  0  0
   -8.4840   14.6020    3.5740 C   0  0  0  0  0  0  0  0  0  0  0  0
   -3.8820   15.0420   -3.0460 C   0  0  0  0  0  0  0  0  0  0  0  0
   -8.2050   13.5540    4.4150 N   0  0  0  0  0  0  0  0  0  0  0  0
   -9.8200   15.1330    3.3900 C   0  0  0  0  0  0  0  0  0  0  0  0
   -9.9010   15.9160    2.2430 C   0  0  0  0  0  0  0  0  0  0  0  0
  -10.9120   14.9120    4.2090 C   0  0  0  0  0  0  0  0  0  0  0  0
  -11.0920   16.4960    1.8720 C   0  0  0  0  0  0  0  0  0  0  0  0
  -12.1290   15.4930    3.8450 C   0  0  0  0  0  0  0  0  0  0  0  0
  -12.2310   16.2830    2.6760 C   0  0  0  0  0  0  0  0  0  0  0  0
  -11.1750   17.2820    0.7140 C   0  0  0  0  0  0  0  0  0  0  0  0
  -13.4410   16.8620    2.2870 C   0  0  0  0  0  0  0  0  0  0  0  0
  -12.3850   17.8520    0.3450 C   0  0  0  0  0  0  0  0  0  0  0  0
  -13.5180   17.6420    1.1290 C   0  0  0  0  0  0  0  0  0  0  0  0
  1  2  1  0
  2  3  2  3
  2  4  1  0
  3  5  1  0
  4  6  2  0
  4  7  1  0
  5  8  1  0
  6  9  1  0
  7 10  2  0
  8 11  2  3
  9 12  2  0
 10 12  1  0
 11 13  1  0
 11 14  1  0
 14 15  2  0
 14 16  1  0
 15 17  1  0
 16 18  2  0
 17 19  2  0
 18 19  1  0
 17 20  1  0
 19 21  1  0
 20 22  2  0
 21 23  2  0
 22 23  1  0
M  END
