mac-x0206-diamond-x0805_0_A
     RDKit          3D

 24 26  0  0  0  0  0  0  0  0999 V2000
   -5.9860   14.9220   -1.8040 C   0  0  0  0  0  0  0  0  0  0  0  0
   -5.0980   14.8410   -2.6960 N   0  0  0  0  0  0  0  0  0  0  0  0
   -3.7600   14.6880   -2.6480 C   0  0  0  0  0  0  0  0  0  0  0  0
   -6.1220   14.8760   -0.3550 C   0  0  0  0  0  0  0  0  0  0  0  0
   -7.4240   14.5650   -0.0660 C   0  0  0  0  0  0  0  0  0  0  0  0
   -5.1970   15.0910    0.6580 C   0  0  0  0  0  0  0  0  0  0  0  0
   -8.2630   14.3710   -1.1200 O   0  0  0  0  0  0  0  0  0  0  0  0
   -7.8780   14.4490    1.2300 C   0  0  0  0  0  0  0  0  0  0  0  0
   -5.6460   14.9770    1.9760 C   0  0  0  0  0  0  0  0  0  0  0  0
   -2.9810   15.4830   -1.8440 C   0  0  0  0  0  0  0  0  0  0  0  0
   -3.2080   13.7210   -3.4740 C   0  0  0  0  0  0  0  0  0  0  0  0
   -6.9810   14.6580    2.2610 C   0  0  0  0  0  0  0  0  0  0  0  0
   -1.8340   13.5720   -3.5180 C   0  0  0  0  0  0  0  0  0  0  0  0
   -1.6110   15.3450   -1.8820 C   0  0  0  0  0  0  0  0  0  0  0  0
   -1.0210   14.4030   -2.7270 C   0  0  0  0  0  0  0  0  0  0  0  0
    0.4890   14.3160   -2.7780 C   0  0  1  0  0  0  0  0  0  0  0  0
    1.0740   12.9760   -3.2130 C   0  0  1  0  0  0  0  0  0  0  0  0
    1.1620   15.4770   -3.5020 C   0  0  0  0  0  0  0  0  0  0  0  0
    0.4460   11.8560   -2.4740 C   0  0  0  0  0  0  0  0  0  0  0  0
    1.1350   12.8620   -4.7190 C   0  0  0  0  0  0  0  0  0  0  0  0
    1.2000   15.2030   -4.9800 C   0  0  0  0  0  0  0  0  0  0  0  0
    0.2590   10.6890   -3.1000 O   0  0  0  0  0  0  0  0  0  0  0  0
    0.1080   12.0150   -1.3170 O   0  0  0  0  0  0  0  0  0  0  0  0
    1.8690   13.9660   -5.2140 O   0  0  0  0  0  0  0  0  0  0  0  0
  1  2  2  3
  2  3  1  0
  1  4  1  0
  4  5  2  0
  4  6  1  0
  5  7  1  0
  5  8  1  0
  6  9  2  0
  3 10  2  0
  3 11  1  0
  8 12  2  0
  9 12  1  0
 11 13  2  0
 10 14  1  0
 13 15  1  0
 14 15  2  0
 16 15  1  6
 16 17  1  0
 16 18  1  0
 17 19  1  6
 17 20  1  0
 18 21  1  0
 19 22  1  0
 19 23  2  0
 20 24  1  0
 21 24  1  0
M  END
