mac-x0345-mac-x0439
     RDKit          3D

 23 25  0  0  0  0  0  0  0  0999 V2000
   -7.3640   14.7570    0.2690 C   0  0  0  0  0  0  0  0  0  0  0  0
   -6.0710   14.9780   -0.4720 C   0  0  0  0  0  0  0  0  0  0  0  0
   -6.1090   14.8190   -1.8300 N   0  0  0  0  0  0  0  0  0  0  0  0
   -4.8670   15.3260    0.1490 C   0  0  0  0  0  0  0  0  0  0  0  0
   -4.5080   15.6240    1.9310 Br  0  0  0  0  0  0  0  0  0  0  0  0
   -3.7460   15.4960   -0.5650 C   0  0  0  0  0  0  0  0  0  0  0  0
   -4.9480   15.0090   -2.5130 C   0  0  0  0  0  0  0  0  0  0  0  0
   -4.9110   14.8610   -3.8890 N   0  0  0  0  0  0  0  0  0  0  0  0
   -3.7690   15.3440   -1.9050 C   0  0  0  0  0  0  0  0  0  0  0  0
   -3.5180   14.7450   -4.3920 C   0  0  0  0  0  0  0  0  0  0  0  0
   -3.1420   15.7090   -5.5380 C   0  0  0  0  0  0  0  0  0  0  0  0
   -1.8180   16.4760   -5.4590 C   0  0  0  0  0  0  0  0  0  0  0  0
   -0.5050   15.8000   -5.1210 C   0  0  2  0  0  0  0  0  0  0  0  0
   -1.7600   17.8000   -5.7620 C   0  0  0  0  0  0  0  0  0  0  0  0
   -0.2360   14.7050   -4.1610 C   0  0  0  0  0  0  0  0  0  0  0  0
    0.5630   16.7510   -4.6570 C   0  0  0  0  0  0  0  0  0  0  0  0
   -0.5160   18.5510   -5.7620 C   0  0  0  0  0  0  0  0  0  0  0  0
    0.8700   15.0240   -3.4780 C   0  0  0  0  0  0  0  0  0  0  0  0
    1.3550   16.2710   -3.7700 N   0  0  0  0  0  0  0  0  0  0  0  0
    0.6390   18.0940   -5.2490 C   0  0  0  0  0  0  0  0  0  0  0  0
    1.5140   14.1220   -2.4860 C   0  0  0  0  0  0  0  0  0  0  0  0
    2.8640   14.2880   -2.4400 O   0  0  0  0  0  0  0  0  0  0  0  0
    0.9150   13.3100   -1.8070 O   0  0  0  0  0  0  0  0  0  0  0  0
  1  2  1  0
  2  3  2  0
  2  4  1  0
  4  5  1  0
  4  6  2  0
  3  7  1  0
  7  8  1  0
  6  9  1  0
  7  9  2  0
  8 10  1  0
 10 11  1  0
 11 12  1  0
 12 13  1  0
 12 14  2  0
 13 15  1  1
 13 16  1  0
 14 17  1  0
 15 18  2  0
 16 19  2  0
 18 19  1  0
 16 20  1  0
 17 20  2  0
 18 21  1  0
 21 22  1  0
 21 23  2  0
M  END
