mac-x0337-diamond-x0282_0_A
     RDKit          3D

 25 28  0  0  0  0  0  0  0  0999 V2000
   -4.0100    8.0510   -3.8120 C   0  0  0  0  0  0  0  0  0  0  0  0
   -4.0420    9.5560   -3.5130 C   0  0  0  0  0  0  0  0  0  0  0  0
   -4.9240   10.1250   -2.6000 C   0  0  0  0  0  0  0  0  0  0  0  0
   -3.1740   10.4450   -4.1310 C   0  0  0  0  0  0  0  0  0  0  0  0
   -3.2150   11.8210   -3.8740 C   0  0  0  0  0  0  0  0  0  0  0  0
   -4.9520   11.4830   -2.3330 C   0  0  0  0  0  0  0  0  0  0  0  0
   -4.1160   12.3440   -2.9560 C   0  0  0  0  0  0  0  0  0  0  0  0
   -4.3070   13.9540   -2.5270 S   0  0  0  0  0  0  0  0  0  0  0  0
   -5.5480   13.9990   -3.1560 O   0  0  0  0  0  0  0  0  0  0  0  0
   -4.5480   14.0640   -0.7930 C   0  0  1  0  0  0  0  0  0  0  0  0
   -3.3700   14.0670   -1.6370 C   0  0  0  0  0  0  0  0  0  0  0  0
   -2.4170   14.1830   -0.7330 N   0  0  0  0  0  0  0  0  0  0  0  0
   -3.3830   14.6520    0.2040 C   0  0  2  0  0  0  0  0  0  0  0  0
   -5.9170   14.4670   -0.4640 C   0  0  0  0  0  0  0  0  0  0  0  0
   -6.2400   14.3480    0.9460 C   0  0  1  0  0  0  0  0  0  0  0  0
   -3.6400   14.0490    1.5710 C   0  0  0  0  0  0  0  0  0  0  0  0
   -1.9390   14.9160    0.3500 C   0  0  0  0  0  0  0  0  0  0  0  0
   -7.2420   13.1640    1.2370 C   0  0  0  0  0  0  0  0  0  0  0  0
   -5.0920   14.3000    1.9950 C   0  0  0  0  0  0  0  0  0  0  0  0
   -1.1470   15.3150   -0.6300 N   0  0  0  0  0  0  0  0  0  0  0  0
   -1.3940   14.6950    1.5920 N   0  0  0  0  0  0  0  0  0  0  0  0
   -8.5880   13.3910    0.9710 O   0  0  0  0  0  0  0  0  0  0  0  0
    0.1480   15.5320   -0.4440 C   0  0  0  0  0  0  0  0  0  0  0  0
   -0.1000   14.8730    1.8330 C   0  0  0  0  0  0  0  0  0  0  0  0
    0.6860   15.3220    0.7870 C   0  0  0  0  0  0  0  0  0  0  0  0
  1  2  1  0
  2  3  2  0
  2  4  1  0
  4  5  2  0
  3  6  1  0
  5  7  1  0
  6  7  2  0
  7  8  1  0
  8  9  2  0
  8 10  1  0
  8 11  1  0
 11 12  2  0
 10 13  1  0
 12 13  1  0
 10 14  1  6
 14 15  1  0
 13 16  1  0
 13 17  1  1
 15 18  1  6
 15 19  1  0
 16 19  1  0
 17 20  2  0
 17 21  1  0
 18 22  1  0
 20 23  1  0
 21 24  2  0
 23 25  2  0
 24 25  1  0
M  END
