mac-x0354-mac-x0587
     RDKit          3D

 27 29  0  0  0  0  0  0  0  0999 V2000
    0.6480   11.1240   -8.3220 C   0  0  0  0  0  0  0  0  0  0  0  0
    0.9340   11.5380   -6.9580 N   0  0  0  0  0  0  0  0  0  0  0  0
    1.9060   12.4150   -6.6570 N   0  0  0  0  0  0  0  0  0  0  0  0
    0.2720   11.1000   -5.8660 C   0  0  0  0  0  0  0  0  0  0  0  0
    1.8630   12.5400   -5.3390 C   0  0  0  0  0  0  0  0  0  0  0  0
    0.8530   11.7290   -4.7710 C   0  0  0  0  0  0  0  0  0  0  0  0
   -0.8110   10.1500   -5.9550 C   0  0  0  0  0  0  0  0  0  0  0  0
    0.5070   11.6000   -3.3200 C   0  0  0  0  0  0  0  0  0  0  0  0
   -0.5990    8.8890   -6.5280 C   0  0  0  0  0  0  0  0  0  0  0  0
   -2.0680   10.4860   -5.4700 C   0  0  0  0  0  0  0  0  0  0  0  0
    1.4390   12.2880   -2.4920 O   0  0  0  0  0  0  0  0  0  0  0  0
    0.3860   10.2670   -2.8080 O   0  0  0  0  0  0  0  0  0  0  0  0
   -0.8230   12.3180   -3.2580 C   0  0  0  0  0  0  0  0  0  0  0  0
   -1.6450    7.9750   -6.6070 C   0  0  0  0  0  0  0  0  0  0  0  0
   -3.1150    9.5740   -5.5480 C   0  0  0  0  0  0  0  0  0  0  0  0
   -0.8990   13.4290   -4.7240 S   0  0  0  0  0  0  0  0  0  0  0  0
   -2.9010    8.3200   -6.1160 C   0  0  0  0  0  0  0  0  0  0  0  0
   -0.8920   14.9770   -3.7750 C   0  0  1  0  0  0  0  0  0  0  0  0
   -0.1360   16.1000   -4.4810 C   0  0  0  0  0  0  0  0  0  0  0  0
   -2.3410   15.2390   -3.3740 C   0  0  0  0  0  0  0  0  0  0  0  0
   -3.0890   15.6700   -4.2560 O   0  0  0  0  0  0  0  0  0  0  0  0
   -2.7790   14.9840   -2.0890 N   0  0  0  0  0  0  0  0  0  0  0  0
   -4.1260   15.1270   -1.5680 C   0  0  0  0  0  0  0  0  0  0  0  0
   -1.9010   14.7890   -0.9920 C   0  0  0  0  0  0  0  0  0  0  0  0
   -0.6860   14.7590   -0.9460 O   0  0  0  0  0  0  0  0  0  0  0  0
   -3.9600   15.2370   -0.0640 C   0  0  0  0  0  0  0  0  0  0  0  0
   -2.6800   14.6500    0.1530 N   0  0  0  0  0  0  0  0  0  0  0  0
  1  2  1  0
  2  3  1  0
  2  4  1  0
  3  5  2  0
  4  6  2  0
  5  6  1  0
  4  7  1  0
  6  8  1  0
  7  9  2  0
  7 10  1  0
  8 11  1  0
  8 12  1  0
  8 13  1  0
  9 14  1  0
 10 15  2  0
 13 16  1  0
 14 17  2  0
 15 17  1  0
 16 18  1  0
 18 19  1  6
 18 20  1  0
 20 21  2  0
 20 22  1  0
 22 23  1  0
 22 24  1  0
 24 25  2  0
 23 26  1  0
 24 27  1  0
 26 27  1  0
M  END
