mac-x0385-mac-x0433
     RDKit          3D

 17 18  0  0  0  0  0  0  0  0999 V2000
   -4.2040   15.8080   -1.4050 C   0  0  0  0  0  0  0  0  0  0  0  0
   -3.1130   15.3830   -0.5000 C   0  0  0  0  0  0  0  0  0  0  0  0
   -1.8610   15.2930   -1.0210 C   0  0  0  0  0  0  0  0  0  0  0  0
   -3.2850   15.0590    0.8510 C   0  0  0  0  0  0  0  0  0  0  0  0
   -4.6060   15.1580    1.3200 N   0  0  0  0  0  0  0  0  0  0  0  0
   -2.2610   14.6690    1.5980 N   0  0  0  0  0  0  0  0  0  0  0  0
   -0.8260   14.9010   -0.3140 N   0  0  0  0  0  0  0  0  0  0  0  0
   -1.0970   14.6030    0.9590 C   0  0  0  0  0  0  0  0  0  0  0  0
   -5.5460   14.9980    0.3020 C   0  0  0  0  0  0  0  0  0  0  0  0
    0.0200   14.1310    1.7340 C   0  0  0  0  0  0  0  0  0  0  0  0
   -5.0670   15.1150   -0.9790 C   0  0  0  0  0  0  0  0  0  0  0  0
   -6.9130   14.7360    0.3480 C   0  0  0  0  0  0  0  0  0  0  0  0
   -7.6660   14.5560    1.6360 C   0  0  0  0  0  0  0  0  0  0  0  0
   -5.7640   15.0130   -2.1130 N   0  0  0  0  0  0  0  0  0  0  0  0
   -7.6640   14.6290   -0.7870 N   0  0  0  0  0  0  0  0  0  0  0  0
   -7.0380   14.7800   -1.9630 C   0  0  0  0  0  0  0  0  0  0  0  0
   -7.7600   14.6860   -3.1240 N   0  0  0  0  0  0  0  0  0  0  0  0
  1  2  1  0
  2  3  2  0
  2  4  1  0
  4  5  1  0
  4  6  2  0
  3  7  1  0
  6  8  1  0
  7  8  2  0
  5  9  1  0
  8 10  1  0
  9 11  2  0
  9 12  1  0
 12 13  1  0
 11 14  1  0
 12 15  2  0
 14 16  2  0
 15 16  1  0
 16 17  1  0
M  END
