mac-x0132-mac-x0387
     RDKit          3D

 21 24  0  0  0  0  0  0  0  0999 V2000
   -3.9720   14.8340    1.7560 N   0  0  0  0  0  0  0  0  0  0  0  0
   -5.1740   14.7750    1.0030 C   0  0  0  0  0  0  0  0  0  0  0  0
   -6.3900   14.5350    1.5250 N   0  0  0  0  0  0  0  0  0  0  0  0
   -2.6380   14.5890    1.2250 C   0  0  0  0  0  0  0  0  0  0  0  0
   -4.9960   14.9670   -0.3650 C   0  0  0  0  0  0  0  0  0  0  0  0
   -2.4690   14.2170   -0.1580 C   0  0  0  0  0  0  0  0  0  0  0  0
   -1.5510   14.7160    1.9950 N   0  0  0  0  0  0  0  0  0  0  0  0
   -6.1360   14.8670   -1.1620 C   0  0  0  0  0  0  0  0  0  0  0  0
   -7.4180   14.4770    0.6720 C   0  0  0  0  0  0  0  0  0  0  0  0
   -3.7420   15.2410   -0.9530 C   0  0  0  0  0  0  0  0  0  0  0  0
   -1.1530   14.0270   -0.6540 C   0  0  0  0  0  0  0  0  0  0  0  0
   -0.3250   14.5110    1.4870 C   0  0  0  0  0  0  0  0  0  0  0  0
   -3.5150   14.0180   -1.0980 C   0  0  0  0  0  0  0  0  0  0  0  0
   -7.3520   14.6270   -0.6590 N   0  0  0  0  0  0  0  0  0  0  0  0
   -5.9750   15.0180   -2.5300 C   0  0  0  0  0  0  0  0  0  0  0  0
   -3.6050   15.3900   -2.3190 C   0  0  0  0  0  0  0  0  0  0  0  0
   -0.0760   14.1800    0.1890 C   0  0  0  0  0  0  0  0  0  0  0  0
   -0.9210   13.6840   -1.9940 C   0  0  0  0  0  0  0  0  0  0  0  0
   -3.2690   13.6670   -2.4320 C   0  0  0  0  0  0  0  0  0  0  0  0
   -4.7230   15.2680   -3.1080 C   0  0  0  0  0  0  0  0  0  0  0  0
   -1.9750   13.5070   -2.8800 C   0  0  0  0  0  0  0  0  0  0  0  0
  1  2  1  0
  2  3  2  0
  1  4  1  0
  2  5  1  0
  4  6  1  0
  4  7  2  0
  5  8  2  0
  3  9  1  0
  5 10  1  0
  6 11  2  0
  7 12  1  0
  6 13  1  0
  8 14  1  0
  9 14  2  0
  8 15  1  0
 10 16  2  0
 11 17  1  0
 12 17  2  0
 11 18  1  0
 13 19  2  0
 15 20  2  0
 16 20  1  0
 18 21  2  0
 19 21  1  0
M  END
