mac-x0179-mac-x0411
     RDKit          3D

 16 17  0  0  0  0  0  0  0  0999 V2000
    1.4500   12.9240   -2.2450 O   0  0  0  0  0  0  0  0  0  0  0  0
    0.9040   12.1600   -3.2060 C   0  0  0  0  0  0  0  0  0  0  0  0
    0.6030   11.0070   -2.9480 O   0  0  0  0  0  0  0  0  0  0  0  0
    0.7150   12.8290   -4.5630 C   0  0  0  0  0  0  0  0  0  0  0  0
    0.0240   11.9680   -5.5020 N   0  0  0  0  0  0  0  0  0  0  0  0
    0.6640   11.3410   -6.5290 C   0  0  0  0  0  0  0  0  0  0  0  0
   -1.1700   11.3710   -5.2250 C   0  0  0  0  0  0  0  0  0  0  0  0
    1.7430   11.6140   -6.9780 O   0  0  0  0  0  0  0  0  0  0  0  0
   -1.9730   11.6450   -4.3550 O   0  0  0  0  0  0  0  0  0  0  0  0
   -0.2050   10.2500   -6.9800 C   0  0  0  0  0  0  0  0  0  0  0  0
   -1.3320   10.2830   -6.1850 C   0  0  0  0  0  0  0  0  0  0  0  0
   -0.0820    9.2980   -7.9640 C   0  0  0  0  0  0  0  0  0  0  0  0
   -2.3810    9.3940   -6.3380 C   0  0  0  0  0  0  0  0  0  0  0  0
    1.2710    9.1590   -8.9720 Cl  0  0  0  0  0  0  0  0  0  0  0  0
   -1.1230    8.3870   -8.1490 C   0  0  0  0  0  0  0  0  0  0  0  0
   -2.2700    8.4340   -7.3430 C   0  0  0  0  0  0  0  0  0  0  0  0
  1  2  1  0
  2  3  2  0
  2  4  1  0
  4  5  1  0
  5  6  1  0
  5  7  1  0
  6  8  2  0
  7  9  2  0
  6 10  1  0
  7 11  1  0
 10 11  2  0
 10 12  1  0
 11 13  1  0
 12 14  1  0
 12 15  2  0
 13 16  2  0
 15 16  1  0
M  END
