mac-x0441-mac-x0283
     RDKit          3D

 30 33  0  0  0  0  0  0  0  0999 V2000
    1.5220   11.1130   -3.6440 O   0  0  0  0  0  0  0  0  0  0  0  0
    0.8410   12.2620   -3.5700 C   0  0  0  0  0  0  0  0  0  0  0  0
    0.5240   12.7960   -2.4520 N   0  0  0  0  0  0  0  0  0  0  0  0
    0.4960   12.8620   -4.9180 C   0  0  0  0  0  0  0  0  0  0  0  0
   -0.2420   14.0300   -2.4010 C   0  0  0  0  0  0  0  0  0  0  0  0
    0.1590   11.9360   -5.9940 N   0  0  0  0  0  0  0  0  0  0  0  0
   -1.6850   13.6520   -2.7440 C   0  0  0  0  0  0  0  0  0  0  0  0
    0.9640   11.8880   -7.0900 N   0  0  0  0  0  0  0  0  0  0  0  0
   -0.8930   11.0650   -6.0950 C   0  0  0  0  0  0  0  0  0  0  0  0
   -2.6930   14.7980   -2.8590 C   0  0  0  0  0  0  0  0  0  0  0  0
    0.4030   10.9670   -7.9110 C   0  0  0  0  0  0  0  0  0  0  0  0
   -0.7610   10.4370   -7.3140 C   0  0  0  0  0  0  0  0  0  0  0  0
   -1.9790   10.8120   -5.1080 C   0  0  0  0  0  0  0  0  0  0  0  0
    0.9040   10.5250   -9.2700 C   0  0  0  0  0  0  0  0  0  0  0  0
   -1.6990    9.4070   -7.8100 C   0  0  0  0  0  0  0  0  0  0  0  0
   -3.0440    9.8610   -5.7040 C   0  0  0  0  0  0  0  0  0  0  0  0
   -3.6390   14.8370   -1.6850 C   0  0  0  0  0  0  0  0  0  0  0  0
    1.5540    9.3350   -9.2050 F   0  0  0  0  0  0  0  0  0  0  0  0
   -0.1320   10.3140  -10.1180 F   0  0  0  0  0  0  0  0  0  0  0  0
    1.7020   11.3670   -9.9500 F   0  0  0  0  0  0  0  0  0  0  0  0
   -2.4530    8.7780   -6.6280 C   0  0  0  0  0  0  0  0  0  0  0  0
   -5.0090   14.7930   -1.9510 C   0  0  0  0  0  0  0  0  0  0  0  0
   -3.1770   14.8970   -0.3510 C   0  0  0  0  0  0  0  0  0  0  0  0
   -5.8610   14.7890   -0.8630 C   0  0  0  0  0  0  0  0  0  0  0  0
   -4.0720   14.8960    0.7320 C   0  0  0  0  0  0  0  0  0  0  0  0
   -7.2130   14.7360   -0.9210 O   0  0  0  0  0  0  0  0  0  0  0  0
   -5.4530   14.8300    0.4570 C   0  0  0  0  0  0  0  0  0  0  0  0
   -6.6810   14.7870    1.1760 C   0  0  0  0  0  0  0  0  0  0  0  0
   -7.7350   14.7300    0.3570 N   0  0  0  0  0  0  0  0  0  0  0  0
   -6.7870   14.8070    2.5190 N   0  0  0  0  0  0  0  0  0  0  0  0
  1  2  1  0
  2  3  2  3
  2  4  1  0
  3  5  1  0
  4  6  1  0
  5  7  1  0
  6  8  1  0
  6  9  1  0
  7 10  1  0
  8 11  2  0
  9 12  2  0
 11 12  1  0
  9 13  1  0
 11 14  1  0
 12 15  1  0
 13 16  1  0
 10 17  1  0
 14 18  1  0
 14 19  1  0
 14 20  1  0
 15 21  1  0
 16 21  1  0
 17 22  2  0
 17 23  1  0
 22 24  1  0
 23 25  2  0
 24 26  1  0
 24 27  2  0
 25 27  1  0
 27 28  1  0
 26 29  1  0
 28 29  2  0
 28 30  1  0
M  END
