mac-x0302-mac-x0182
     RDKit          3D

 27 29  0  0  0  0  0  0  0  0999 V2000
    1.0860   14.6200   -3.6610 O   0  0  0  0  0  0  0  0  0  0  0  0
    0.4480   14.0940   -2.5950 C   0  0  0  0  0  0  0  0  0  0  0  0
    1.0630   13.8360   -1.5750 O   0  0  0  0  0  0  0  0  0  0  0  0
   -1.0480   13.8450   -2.7640 C   0  0  1  0  0  0  0  0  0  0  0  0
   -1.7660   15.0040   -2.2530 N   0  0  0  0  0  0  0  0  0  0  0  0
   -1.3820   13.5430   -4.2170 C   0  0  0  0  0  0  0  0  0  0  0  0
   -3.1210   15.1890   -2.4310 C   0  0  0  0  0  0  0  0  0  0  0  0
   -1.8190   12.1440   -4.3580 N   0  0  0  0  0  0  0  0  0  0  0  0
   -3.6360   15.4130   -3.5240 O   0  0  0  0  0  0  0  0  0  0  0  0
   -3.9310   15.1070   -1.1910 C   0  0  0  0  0  0  0  0  0  0  0  0
   -0.7540   11.0640   -4.4110 S   0  0  2  0  0  0  0  0  0  0  0  0
   -0.1980   10.2680   -3.3410 O   0  0  0  0  0  0  0  0  0  0  0  0
   -5.3200   15.0070   -1.2930 C   0  0  0  0  0  0  0  0  0  0  0  0
   -3.3240   15.1250    0.0750 C   0  0  0  0  0  0  0  0  0  0  0  0
    0.5200   11.8590   -5.1430 N   0  0  0  0  0  0  0  0  0  0  0  0
   -1.1310   10.0640   -5.7740 C   0  0  0  0  0  0  0  0  0  0  0  0
   -6.0780   14.9200   -0.1310 C   0  0  0  0  0  0  0  0  0  0  0  0
   -4.0960   15.0420    1.2290 C   0  0  0  0  0  0  0  0  0  0  0  0
    0.7370   11.4060   -6.4120 C   0  0  0  0  0  0  0  0  0  0  0  0
   -0.2410   10.3610   -6.7950 C   0  0  0  0  0  0  0  0  0  0  0  0
   -2.1310    9.1210   -5.8880 C   0  0  0  0  0  0  0  0  0  0  0  0
   -7.4310   14.8150   -0.2580 O   0  0  0  0  0  0  0  0  0  0  0  0
    1.6260   11.7570   -7.1380 O   0  0  0  0  0  0  0  0  0  0  0  0
   -5.4780   14.9360    1.1240 C   0  0  0  0  0  0  0  0  0  0  0  0
   -2.2200    8.4530   -7.1050 C   0  0  0  0  0  0  0  0  0  0  0  0
   -0.3240    9.6990   -8.0110 C   0  0  0  0  0  0  0  0  0  0  0  0
   -1.3270    8.7360   -8.1630 C   0  0  0  0  0  0  0  0  0  0  0  0
  1  2  1  0
  2  3  2  0
  2  4  1  0
  4  5  1  0
  4  6  1  6
  5  7  1  0
  6  8  1  0
  7  9  2  0
  7 10  1  0
  8 11  2  0
 11 12  2  0
 10 13  2  0
 10 14  1  0
 11 15  1  6
 11 16  1  0
 13 17  1  0
 14 18  2  0
 15 19  1  0
 16 20  2  0
 19 20  1  0
 16 21  1  0
 17 22  1  0
 19 23  2  0
 17 24  2  0
 18 24  1  0
 21 25  2  0
 20 26  1  0
 25 27  1  0
 26 27  2  0
M  END
