mac-x0587-mac-x0417
     RDKit          3D

 24 26  0  0  0  0  0  0  0  0999 V2000
    0.0020   15.7720   -4.9960 C   0  0  0  0  0  0  0  0  0  0  0  0
   -0.6300   14.6900   -4.1430 C   0  0  2  0  0  0  0  0  0  0  0  0
    0.1390   13.0750   -4.3330 S   0  0  1  0  0  0  0  0  0  0  0  0
   -2.1230   14.7930   -3.7160 C   0  0  0  0  0  0  0  0  0  0  0  0
   -0.5910   12.0470   -3.1340 C   0  0  0  0  0  0  0  0  0  0  0  0
   -2.9320   14.9370   -4.6420 O   0  0  0  0  0  0  0  0  0  0  0  0
   -2.5680   14.7680   -2.3910 N   0  0  0  0  0  0  0  0  0  0  0  0
    0.1150   12.0230   -5.6990 C   0  0  0  0  0  0  0  0  0  0  0  0
    0.5390   11.3770   -2.4710 C   0  0  0  0  0  0  0  0  0  0  0  0
   -3.9210   15.0490   -1.9100 C   0  0  0  0  0  0  0  0  0  0  0  0
   -1.7220   14.7610   -1.2500 C   0  0  0  0  0  0  0  0  0  0  0  0
    1.1020   12.0300   -6.5930 N   0  0  0  0  0  0  0  0  0  0  0  0
   -0.8660   11.0410   -6.0070 C   0  0  0  0  0  0  0  0  0  0  0  0
    0.6550   10.1850   -2.2790 O   0  0  0  0  0  0  0  0  0  0  0  0
    1.4790   12.2750   -2.1030 O   0  0  0  0  0  0  0  0  0  0  0  0
   -0.5130   14.8450   -1.1590 O   0  0  0  0  0  0  0  0  0  0  0  0
   -3.8290   15.1540   -0.3960 C   0  0  0  0  0  0  0  0  0  0  0  0
   -2.5270   14.6530   -0.1140 N   0  0  0  0  0  0  0  0  0  0  0  0
    0.7800   11.0430   -7.5260 O   0  0  0  0  0  0  0  0  0  0  0  0
   -0.3890   10.4530   -7.1720 C   0  0  0  0  0  0  0  0  0  0  0  0
   -2.0750   10.5620   -5.4720 C   0  0  0  0  0  0  0  0  0  0  0  0
   -1.0250    9.4140   -7.8540 C   0  0  0  0  0  0  0  0  0  0  0  0
   -2.7400    9.5160   -6.1330 C   0  0  0  0  0  0  0  0  0  0  0  0
   -2.2240    8.9540   -7.3010 C   0  0  0  0  0  0  0  0  0  0  0  0
  2  1  1  6
  2  3  1  0
  2  4  1  0
  3  5  1  1
  4  6  2  0
  4  7  1  0
  3  8  1  0
  5  9  1  0
  7 10  1  0
  7 11  1  0
  8 12  2  0
  8 13  1  0
  9 14  2  0
  9 15  1  0
 11 16  2  0
 10 17  1  0
 11 18  1  0
 17 18  1  0
 12 19  1  0
 13 20  2  0
 19 20  1  0
 13 21  1  0
 20 22  1  0
 21 23  2  0
 22 24  2  0
 23 24  1  0
M  END
