mac-x0588-mac-x0282
     RDKit          3D

 16 18  0  0  0  0  0  0  0  0999 V2000
   -4.5660   15.1110    0.9910 N   0  0  0  0  0  0  0  0  0  0  0  0
   -3.5680   15.4350    0.0000 C   0  0  1  0  0  0  0  0  0  0  0  0
   -2.2380   14.7160    0.2050 C   0  0  1  0  0  0  0  0  0  0  0  0
   -4.1120   15.0410   -1.2790 N   0  0  0  0  0  0  0  0  0  0  0  0
   -3.2000   15.3490   -2.3770 C   0  0  0  0  0  0  0  0  0  0  0  0
   -1.3280   15.1670   -0.9240 C   0  0  2  0  0  0  0  0  0  0  0  0
   -1.4440   14.9900    1.3960 N   0  0  0  0  0  0  0  0  0  0  0  0
   -1.8880   14.7180   -2.1960 N   0  0  0  0  0  0  0  0  0  0  0  0
   -0.1140   14.4930   -0.5060 N   0  0  0  0  0  0  0  0  0  0  0  0
   -0.1000   14.6270    0.9480 C   0  0  0  0  0  0  0  0  0  0  0  0
   -1.0020   14.9720   -3.3600 C   0  0  0  0  0  0  0  0  0  0  0  0
   -0.5330   16.4110   -3.6990 C   0  0  2  0  0  0  0  0  0  0  0  0
   -1.5600   17.2650   -4.2850 O   0  0  0  0  0  0  0  0  0  0  0  0
    0.6590   16.4390   -4.6540 C   0  0  0  0  0  0  0  0  0  0  0  0
    0.5630   17.8210   -5.2370 C   0  0  0  0  0  0  0  0  0  0  0  0
   -0.9360   18.0570   -5.3110 C   0  0  0  0  0  0  0  0  0  0  0  0
  2  1  1  1
  2  3  1  0
  2  4  1  0
  4  5  1  0
  3  6  1  0
  3  7  1  1
  5  8  1  0
  6  8  1  0
  6  9  1  1
  7 10  1  0
  9 10  1  0
  8 11  1  0
 12 11  1  6
 12 13  1  0
 12 14  1  0
 14 15  1  0
 13 16  1  0
 15 16  1  0
M  END
