mac-x0283-mac-x0527
     RDKit          3D

 20 22  0  0  0  0  0  0  0  0999 V2000
   -6.8470   14.6900    2.5630 N   0  0  0  0  0  0  0  0  0  0  0  0
   -6.7550   14.7500    1.2250 C   0  0  0  0  0  0  0  0  0  0  0  0
   -7.8150   14.7190    0.4190 N   0  0  0  0  0  0  0  0  0  0  0  0
   -5.5350   14.8630    0.4970 C   0  0  0  0  0  0  0  0  0  0  0  0
   -7.3170   14.8120   -0.8600 O   0  0  0  0  0  0  0  0  0  0  0  0
   -5.9670   14.8970   -0.8170 C   0  0  0  0  0  0  0  0  0  0  0  0
   -4.1500   14.9410    0.7520 C   0  0  0  0  0  0  0  0  0  0  0  0
   -5.1460   14.9980   -1.9170 C   0  0  0  0  0  0  0  0  0  0  0  0
   -3.2790   15.0400   -0.3460 C   0  0  0  0  0  0  0  0  0  0  0  0
   -3.7820   15.0660   -1.6650 C   0  0  0  0  0  0  0  0  0  0  0  0
   -2.8730   15.1600   -2.8220 C   0  0  0  0  0  0  0  0  0  0  0  0
   -3.2890   15.6540   -3.8620 O   0  0  0  0  0  0  0  0  0  0  0  0
   -1.6000   14.6750   -2.6870 N   0  0  0  0  0  0  0  0  0  0  0  0
   -0.7440   14.6650   -3.8460 C   0  0  0  0  0  0  0  0  0  0  0  0
   -0.7910   13.3290   -4.5420 C   0  0  0  0  0  0  0  0  0  0  0  0
   -1.7700   12.3750   -4.2090 C   0  0  0  0  0  0  0  0  0  0  0  0
    0.1490   13.0210   -5.5360 C   0  0  0  0  0  0  0  0  0  0  0  0
   -1.7990   11.1390   -4.8610 C   0  0  0  0  0  0  0  0  0  0  0  0
    0.1160   11.7870   -6.1830 C   0  0  0  0  0  0  0  0  0  0  0  0
   -0.8590   10.8440   -5.8450 C   0  0  0  0  0  0  0  0  0  0  0  0
  1  2  1  0
  2  3  2  0
  2  4  1  0
  3  5  1  0
  4  6  2  0
  5  6  1  0
  4  7  1  0
  6  8  1  0
  7  9  2  0
  8 10  2  0
  9 10  1  0
 10 11  1  0
 11 12  2  0
 11 13  1  0
 13 14  1  0
 14 15  1  0
 15 16  2  0
 15 17  1  0
 16 18  1  0
 17 19  2  0
 18 20  2  0
 19 20  1  0
M  END
