mac-x0385-mac-x0588
     RDKit          3D

 19 21  0  0  0  0  0  0  0  0999 V2000
   -5.1520   15.3990   -1.5750 C   0  0  0  0  0  0  0  0  0  0  0  0
   -3.6280   15.5160   -1.4370 C   0  0  2  0  0  0  0  0  0  0  0  0
   -2.8890   14.4660   -2.3460 C   0  0  1  0  0  0  0  0  0  0  0  0
   -3.1890   15.5560    0.0440 C   0  0  1  0  0  0  0  0  0  0  0  0
   -4.2030   15.0130    0.9750 N   0  0  0  0  0  0  0  0  0  0  0  0
   -1.9680   14.9870   -3.5290 C   0  0  0  0  0  0  0  0  0  0  0  0
   -1.7650   15.0660    0.2480 C   0  0  2  0  0  0  0  0  0  0  0  0
   -2.1850   13.4350   -1.5810 N   0  0  0  0  0  0  0  0  0  0  0  0
   -0.6840   16.0930    0.3490 C   0  0  0  0  0  0  0  0  0  0  0  0
   -1.0340   16.2380   -3.5060 C   0  0  2  0  0  0  0  0  0  0  0  0
   -1.1690   14.1280   -0.8400 C   0  0  2  0  0  0  0  0  0  0  0  0
   -1.5480   14.3140    1.4920 C   0  0  0  0  0  0  0  0  0  0  0  0
    0.5860   15.4150    0.7210 C   0  0  0  0  0  0  0  0  0  0  0  0
   -1.7660   17.3260   -4.1650 O   0  0  0  0  0  0  0  0  0  0  0  0
    0.2870   16.1310   -4.2860 C   0  0  0  0  0  0  0  0  0  0  0  0
   -0.1360   13.4880   -0.0330 N   0  0  0  0  0  0  0  0  0  0  0  0
   -0.5530   13.4820    1.2870 C   0  0  0  0  0  0  0  0  0  0  0  0
    0.4840   17.5000   -4.8940 C   0  0  0  0  0  0  0  0  0  0  0  0
   -0.9410   17.9190   -5.1770 C   0  0  0  0  0  0  0  0  0  0  0  0
  2  1  1  1
  2  3  1  0
  2  4  1  0
  4  5  1  1
  3  6  1  1
  4  7  1  0
  3  8  1  0
  7  9  1  1
 10  6  1  6
  7 11  1  0
 11  8  1  1
  7 12  1  0
  9 13  1  0
 10 14  1  0
 10 15  1  0
 11 16  1  0
 12 17  2  0
 16 17  1  0
 15 18  1  0
 14 19  1  0
 18 19  1  0
M  END
