mac-x0546-diamond-x0962_1_A
     RDKit          3D

 24 26  0  0  0  0  0  0  0  0999 V2000
   -4.1070   15.1040   -6.6260 C   0  0  0  0  0  0  0  0  0  0  0  0
   -3.6940   15.7140   -5.3720 N   0  0  0  0  0  0  0  0  0  0  0  0
   -4.2380   14.8710   -4.2780 C   0  0  0  0  0  0  0  0  0  0  0  0
   -2.3760   15.9650   -5.0670 C   0  0  0  0  0  0  0  0  0  0  0  0
   -3.3210   14.8680   -3.0370 C   0  0  0  0  0  0  0  0  0  0  0  0
   -1.7180   14.8990   -4.6250 C   0  0  0  0  0  0  0  0  0  0  0  0
   -1.6900   17.2770   -5.0990 C   0  0  0  0  0  0  0  0  0  0  0  0
   -3.9920   15.0710   -1.7760 C   0  0  0  0  0  0  0  0  0  0  0  0
   -0.3670   14.9830   -4.1050 C   0  0  2  0  0  0  0  0  0  0  0  0
   -0.3530   17.4160   -4.9150 C   0  0  0  0  0  0  0  0  0  0  0  0
   -4.7120   15.0620   -0.8520 C   0  0  0  0  0  0  0  0  0  0  0  0
    0.3690   16.1410   -4.6970 C   0  0  0  0  0  0  0  0  0  0  0  0
    0.6690   13.9430   -4.2960 C   0  0  0  0  0  0  0  0  0  0  0  0
    0.5050   12.4770   -4.0560 C   0  0  0  0  0  0  0  0  0  0  0  0
    1.6030   15.8990   -4.9380 N   0  0  0  0  0  0  0  0  0  0  0  0
    1.7570   14.5490   -4.6970 C   0  0  0  0  0  0  0  0  0  0  0  0
   -5.7330   14.8640    0.0720 C   0  0  0  0  0  0  0  0  0  0  0  0
    0.3220   12.0220   -2.6170 C   0  0  0  0  0  0  0  0  0  0  0  0
   -5.5750   14.7750    1.4210 N   0  0  0  0  0  0  0  0  0  0  0  0
   -7.0740   14.7120   -0.1570 C   0  0  0  0  0  0  0  0  0  0  0  0
    0.5770   12.5830   -1.5610 O   0  0  0  0  0  0  0  0  0  0  0  0
   -0.2090   10.7850   -2.5850 O   0  0  0  0  0  0  0  0  0  0  0  0
   -6.8140   14.5730    1.9560 C   0  0  0  0  0  0  0  0  0  0  0  0
   -7.7450   14.5320    1.0260 N   0  0  0  0  0  0  0  0  0  0  0  0
  1  2  1  0
  2  3  1  0
  2  4  1  0
  3  5  1  0
  4  6  2  0
  4  7  1  0
  5  8  1  0
  9  6  1  6
  7 10  2  0
  8 11  3  0
  9 12  1  0
 10 12  1  0
  9 13  1  0
 13 14  1  0
 12 15  2  0
 13 16  2  0
 15 16  1  0
 11 17  1  0
 14 18  1  0
 17 19  1  0
 17 20  2  0
 18 21  2  0
 18 22  1  0
 19 23  1  0
 20 24  1  0
 23 24  2  0
M  END
