mac-x0588-mac-x0392
     RDKit          3D

 19 21  0  0  0  0  0  0  0  0999 V2000
   -4.3070   15.5870    1.3150 N   0  0  0  0  0  0  0  0  0  0  0  0
   -3.7570   14.8350    0.1960 C   0  0  2  0  0  0  0  0  0  0  0  0
   -2.3120   14.2650    0.3310 C   0  0  1  0  0  0  0  0  0  0  0  0
   -4.0400   15.5750   -1.0030 N   0  0  0  0  0  0  0  0  0  0  0  0
   -3.1130   15.2380   -2.0610 C   0  0  0  0  0  0  0  0  0  0  0  0
   -1.1900   14.8020   -0.6260 C   0  0  1  0  0  0  0  0  0  0  0  0
   -1.7420   14.4640    1.6860 N   0  0  0  0  0  0  0  0  0  0  0  0
   -0.2990   13.6850   -0.9260 N   0  0  0  0  0  0  0  0  0  0  0  0
   -1.6940   15.4900   -1.8100 N   0  0  0  0  0  0  0  0  0  0  0  0
   -0.2690   15.4050    0.2900 N   0  0  0  0  0  0  0  0  0  0  0  0
   -0.3310   14.4560    1.3660 C   0  0  0  0  0  0  0  0  0  0  0  0
   -0.8430   15.4570   -2.9190 C   0  0  0  0  0  0  0  0  0  0  0  0
   -0.4050   14.2520   -3.2610 C   0  0  0  0  0  0  0  0  0  0  0  0
   -0.4190   16.7200   -3.6580 C   0  0  2  0  0  0  0  0  0  0  0  0
    0.4580   14.0690   -4.2870 O   0  0  0  0  0  0  0  0  0  0  0  0
   -1.5290   17.4190   -4.2980 O   0  0  0  0  0  0  0  0  0  0  0  0
    0.5790   16.4790   -4.7840 C   0  0  0  0  0  0  0  0  0  0  0  0
    0.5120   17.8070   -5.4820 C   0  0  0  0  0  0  0  0  0  0  0  0
   -0.9770   18.1180   -5.4240 C   0  0  0  0  0  0  0  0  0  0  0  0
  2  1  1  1
  2  3  1  0
  2  4  1  0
  4  5  1  0
  3  6  1  0
  3  7  1  1
  6  8  1  6
  5  9  1  0
  6  9  1  0
  6 10  1  0
  7 11  1  0
 10 11  1  0
  9 12  1  0
 12 13  2  3
 14 12  1  6
 13 15  1  0
 14 16  1  0
 14 17  1  0
 17 18  1  0
 16 19  1  0
 18 19  1  0
M  END
