mac-x0527-diamond-x0724_0_A
     RDKit          3D

 23 25  0  0  0  0  0  0  0  0999 V2000
   -3.8820   15.7370   -3.4690 O   0  0  0  0  0  0  0  0  0  0  0  0
   -3.2840   15.1740   -2.5700 C   0  0  0  0  0  0  0  0  0  0  0  0
   -1.9580   14.7720   -2.6820 N   0  0  0  0  0  0  0  0  0  0  0  0
   -3.9090   14.7970   -1.1980 C   0  0  2  0  0  0  0  0  0  0  0  0
   -1.2170   14.7990   -3.9280 C   0  0  0  0  0  0  0  0  0  0  0  0
   -5.2050   15.4230   -0.6480 C   0  0  0  0  0  0  0  0  0  0  0  0
   -2.9590   14.8590   -0.1040 N   0  0  0  0  0  0  0  0  0  0  0  0
   -1.0650   13.4290   -4.5580 C   0  0  0  0  0  0  0  0  0  0  0  0
   -5.7000   14.5290    0.5630 C   0  0  2  0  0  0  0  0  0  0  0  0
   -3.2930   13.9700    0.8410 C   0  0  0  0  0  0  0  0  0  0  0  0
   -1.9500   12.3840   -4.2450 C   0  0  0  0  0  0  0  0  0  0  0  0
   -0.0280   13.1810   -5.4760 C   0  0  0  0  0  0  0  0  0  0  0  0
   -4.5690   13.7460    1.1720 C   0  0  0  0  0  0  0  0  0  0  0  0
   -6.8970   13.7680    0.0810 N   0  0  0  0  0  0  0  0  0  0  0  0
   -6.1900   15.0680    1.8680 C   0  0  0  0  0  0  0  0  0  0  0  0
   -1.8020   11.1250   -4.8350 C   0  0  0  0  0  0  0  0  0  0  0  0
    0.1180   11.9230   -6.0640 C   0  0  0  0  0  0  0  0  0  0  0  0
   -7.4510   14.7380    2.1620 C   0  0  0  0  0  0  0  0  0  0  0  0
   -7.8100   13.9520    1.0000 C   0  0  0  0  0  0  0  0  0  0  0  0
   -8.3100   15.0300    3.3390 C   0  0  0  0  0  0  0  0  0  0  0  0
   -0.7690   10.8950   -5.7440 C   0  0  0  0  0  0  0  0  0  0  0  0
   -8.2530   13.9600    4.3360 N   0  0  0  0  0  0  0  0  0  0  0  0
   -8.7400   14.3450    5.6540 C   0  0  0  0  0  0  0  0  0  0  0  0
  1  2  2  0
  2  3  1  0
  4  2  1  6
  3  5  1  0
  4  6  1  0
  4  7  1  0
  5  8  1  0
  9  6  1  6
  7 10  1  0
  8 11  2  0
  8 12  1  0
  9 13  1  0
 10 13  2  0
  9 14  1  0
  9 15  1  0
 11 16  1  0
 12 17  2  0
 15 18  2  0
 14 19  2  0
 18 19  1  0
 18 20  1  0
 16 21  2  0
 17 21  1  0
 20 22  1  0
 22 23  1  0
M  END
