mac-x0417-mac-x0338
     RDKit          3D

 25 27  0  0  0  0  0  0  0  0999 V2000
    1.5850   12.8810   -2.6300 O   0  0  0  0  0  0  0  0  0  0  0  0
    0.7310   12.0170   -3.2290 C   0  0  0  0  0  0  0  0  0  0  0  0
    0.6720   10.8490   -2.8750 O   0  0  0  0  0  0  0  0  0  0  0  0
   -0.1270   12.6070   -4.3450 C   0  0  1  0  0  0  0  0  0  0  0  0
    0.0370   14.1300   -4.5050 C   0  0  0  0  0  0  0  0  0  0  0  0
   -0.0080   11.7320   -5.5750 C   0  0  0  0  0  0  0  0  0  0  0  0
   -1.1230   14.9500   -3.8760 C   0  0  0  0  0  0  0  0  0  0  0  0
    1.0400   11.8410   -6.4180 N   0  0  0  0  0  0  0  0  0  0  0  0
   -0.9010   10.7230   -6.0070 C   0  0  0  0  0  0  0  0  0  0  0  0
   -1.4860   14.5690   -2.4100 C   0  0  0  0  0  0  0  0  0  0  0  0
    0.8220   10.8890   -7.4150 O   0  0  0  0  0  0  0  0  0  0  0  0
   -0.3370   10.2240   -7.1640 C   0  0  0  0  0  0  0  0  0  0  0  0
   -2.1130   10.1740   -5.5580 C   0  0  0  0  0  0  0  0  0  0  0  0
   -0.8970    9.1990   -7.9270 C   0  0  0  0  0  0  0  0  0  0  0  0
   -2.7040    9.1460   -6.2960 C   0  0  0  0  0  0  0  0  0  0  0  0
   -2.9430   14.7850   -2.0180 C   0  0  0  0  0  0  0  0  0  0  0  0
   -2.1070    8.6650   -7.4600 C   0  0  0  0  0  0  0  0  0  0  0  0
   -3.2750   14.8650   -0.6910 N   0  0  0  0  0  0  0  0  0  0  0  0
   -3.9330   14.8960   -2.9910 C   0  0  0  0  0  0  0  0  0  0  0  0
   -4.6020   15.0540   -0.4020 C   0  0  0  0  0  0  0  0  0  0  0  0
   -5.2390   15.0800   -2.7040 N   0  0  0  0  0  0  0  0  0  0  0  0
   -5.0180   15.1420    1.0200 C   0  0  0  0  0  0  0  0  0  0  0  0
   -5.5490   15.1590   -1.3970 C   0  0  0  0  0  0  0  0  0  0  0  0
   -4.0910   15.4520    1.9620 N   0  0  0  0  0  0  0  0  0  0  0  0
   -6.1820   14.9360    1.3640 O   0  0  0  0  0  0  0  0  0  0  0  0
  1  2  1  0
  2  3  2  0
  2  4  1  0
  4  5  1  6
  4  6  1  0
  5  7  1  0
  6  8  2  0
  6  9  1  0
  7 10  1  0
  8 11  1  0
  9 12  2  0
 11 12  1  0
  9 13  1  0
 12 14  1  0
 13 15  2  0
 10 16  1  0
 14 17  2  0
 15 17  1  0
 16 18  2  0
 16 19  1  0
 18 20  1  0
 19 21  2  0
 20 22  1  0
 20 23  2  0
 21 23  1  0
 22 24  1  0
 22 25  2  0
M  END
