mac-x0451-mac-x0159
     RDKit          3D

 22 25  0  0  0  0  0  0  0  0999 V2000
   -6.3430   14.6440    2.9100 N   0  0  0  0  0  0  0  0  0  0  0  0
   -5.4740   14.7180    1.8820 C   0  0  0  0  0  0  0  0  0  0  0  0
   -5.8920   14.7190    0.6610 N   0  0  0  0  0  0  0  0  0  0  0  0
   -3.7590   14.8270    2.0400 S   0  0  0  0  0  0  0  0  0  0  0  0
   -4.8140   14.8240   -0.1950 C   0  0  0  0  0  0  0  0  0  0  0  0
   -3.5680   14.8970    0.3510 C   0  0  0  0  0  0  0  0  0  0  0  0
   -5.1060   14.8640   -1.6140 C   0  0  1  0  0  0  0  0  0  0  0  0
   -2.2620   15.0290   -0.4290 C   0  0  1  0  0  0  0  0  0  0  0  0
   -6.0190   15.9760   -1.5640 N   0  0  0  0  0  0  0  0  0  0  0  0
   -3.8690   15.0460   -2.5390 C   0  0  0  0  0  0  0  0  0  0  0  0
   -2.5380   15.5640   -1.9070 C   0  0  2  0  0  0  0  0  0  0  0  0
   -1.2940   15.8070    0.3940 N   0  0  0  0  0  0  0  0  0  0  0  0
   -1.4970   13.7100   -0.5650 C   0  0  0  0  0  0  0  0  0  0  0  0
   -1.4800   15.1510   -2.8320 O   0  0  0  0  0  0  0  0  0  0  0  0
   -0.0850   14.1060   -0.4580 N   0  0  0  0  0  0  0  0  0  0  0  0
   -0.1670   14.9540    0.7060 C   0  0  0  0  0  0  0  0  0  0  0  0
   -0.9430   16.0860   -3.6900 C   0  0  0  0  0  0  0  0  0  0  0  0
    0.4190   16.3390   -3.6930 C   0  0  0  0  0  0  0  0  0  0  0  0
   -1.6630   16.8390   -4.6010 N   0  0  0  0  0  0  0  0  0  0  0  0
   -0.8590   17.6470   -5.2650 C   0  0  0  0  0  0  0  0  0  0  0  0
    0.7980   17.5490   -4.8480 S   0  0  0  0  0  0  0  0  0  0  0  0
   -1.3120   18.5960   -6.3200 C   0  0  0  0  0  0  0  0  0  0  0  0
  1  2  1  0
  2  3  2  0
  2  4  1  0
  3  5  1  0
  4  6  1  0
  5  6  2  0
  5  7  1  0
  6  8  1  0
  7  9  1  1
  7 10  1  0
  8 11  1  0
 10 11  1  0
  8 12  1  0
  8 13  1  6
 11 14  1  6
 13 15  1  0
 12 16  1  0
 15 16  1  0
 14 17  1  0
 17 18  2  0
 17 19  1  0
 19 20  2  0
 18 21  1  0
 20 21  1  0
 20 22  1  0
M  END
