mac-x0333-diamond-x0724_0_A
     RDKit          3D

 13 14  0  0  0  0  0  0  0  0999 V2000
   -2.5860   15.1900   -2.3630 O   0  0  0  0  0  0  0  0  0  0  0  0
   -3.5710   15.0990   -1.4110 C   0  0  0  0  0  0  0  0  0  0  0  0
   -3.1900   15.0340   -0.0580 C   0  0  0  0  0  0  0  0  0  0  0  0
   -4.9090   15.0710   -1.7750 C   0  0  0  0  0  0  0  0  0  0  0  0
   -5.8350   14.9720   -0.7550 C   0  0  0  0  0  0  0  0  0  0  0  0
   -4.1630   14.9350    0.9630 C   0  0  0  0  0  0  0  0  0  0  0  0
   -5.5070   14.9010    0.6060 C   0  0  0  0  0  0  0  0  0  0  0  0
   -7.1920   14.9310   -0.9540 O   0  0  0  0  0  0  0  0  0  0  0  0
   -6.7150   14.8070    1.3650 N   0  0  0  0  0  0  0  0  0  0  0  0
   -7.6920   14.5040    0.3370 C   0  0  0  0  0  0  0  0  0  0  0  0
   -6.9230   14.4880    2.7960 C   0  0  0  0  0  0  0  0  0  0  0  0
   -8.2740   14.3070    3.3790 N   0  0  0  0  0  0  0  0  0  0  0  0
   -8.3100   14.3500    4.8440 C   0  0  0  0  0  0  0  0  0  0  0  0
  1  2  1  0
  2  3  2  0
  2  4  1  0
  4  5  2  0
  3  6  1  0
  5  7  1  0
  6  7  2  0
  5  8  1  0
  7  9  1  0
  8 10  1  0
  9 10  1  0
  9 11  1  0
 11 12  1  0
 12 13  1  0
M  END
