mac-x0379-diamond-x0662_0_A
     RDKit          3D

 29 31  0  0  0  0  0  0  0  0999 V2000
   -5.1600   15.1100    0.4350 C   0  0  0  0  0  0  0  0  0  0  0  0
   -4.3390   15.0950   -0.7950 C   0  0  0  0  0  0  0  0  0  0  0  0
   -4.8060   15.3360   -1.9920 N   0  0  0  0  0  0  0  0  0  0  0  0
   -2.6690   14.7410   -0.7000 S   0  0  0  0  0  0  0  0  0  0  0  0
   -3.7840   15.2390   -2.9170 C   0  0  0  0  0  0  0  0  0  0  0  0
   -2.5480   14.9210   -2.4130 C   0  0  0  0  0  0  0  0  0  0  0  0
   -1.2920   14.7280   -3.0790 C   0  0  0  0  0  0  0  0  0  0  0  0
   -1.0550   14.4210   -4.2840 N   0  0  0  0  0  0  0  0  0  0  0  0
   -0.2110   14.8830   -2.2700 O   0  0  0  0  0  0  0  0  0  0  0  0
    0.3020   14.1900   -4.7200 C   0  0  0  0  0  0  0  0  0  0  0  0
    0.6300   12.7690   -4.2440 C   0  0  0  0  0  0  0  0  0  0  0  0
   -0.0850   11.8390   -5.1160 N   0  0  0  0  0  0  0  0  0  0  0  0
    0.5780   11.5420   -6.1550 C   0  0  0  0  0  0  0  0  0  0  0  0
    1.7070   11.9680   -6.4290 O   0  0  0  0  0  0  0  0  0  0  0  0
    0.1840   10.6280   -7.2750 C   0  0  0  0  0  0  0  0  0  0  0  0
   -0.8050    9.6560   -7.1410 C   0  0  0  0  0  0  0  0  0  0  0  0
    0.8490   10.7690   -8.4880 C   0  0  0  0  0  0  0  0  0  0  0  0
   -1.1090    8.8390   -8.2370 C   0  0  0  0  0  0  0  0  0  0  0  0
    0.5650    9.9660   -9.5850 C   0  0  0  0  0  0  0  0  0  0  0  0
    1.3110   10.1950  -10.7590 N   0  0  0  0  0  0  0  0  0  0  0  0
   -0.4240    8.9950   -9.4540 C   0  0  0  0  0  0  0  0  0  0  0  0
    2.2180    9.3390  -11.3470 C   0  0  0  0  0  0  0  0  0  0  0  0
    2.4860    8.2020  -10.9720 O   0  0  0  0  0  0  0  0  0  0  0  0
    2.9110    9.9090  -12.5240 C   0  0  0  0  0  0  0  0  0  0  0  0
    2.7120   11.1780  -13.1440 C   0  0  0  0  0  0  0  0  0  0  0  0
    3.8770    9.2140  -13.1570 N   0  0  0  0  0  0  0  0  0  0  0  0
    4.2770   10.0270  -14.1480 N   0  0  0  0  0  0  0  0  0  0  0  0
    3.6100   11.2190  -14.1850 C   0  0  0  0  0  0  0  0  0  0  0  0
    5.3260    9.5820  -15.0340 C   0  0  0  0  0  0  0  0  0  0  0  0
  1  2  1  0
  2  3  2  0
  2  4  1  0
  3  5  1  0
  4  6  1  0
  5  6  2  0
  6  7  1  0
  7  8  2  3
  7  9  1  0
  8 10  1  0
 10 11  1  0
 11 12  1  0
 12 13  2  3
 13 14  1  0
 13 15  1  0
 15 16  2  0
 15 17  1  0
 16 18  1  0
 17 19  2  0
 19 20  1  0
 18 21  2  0
 19 21  1  0
 20 22  1  0
 22 23  2  0
 22 24  1  0
 24 25  1  0
 24 26  2  0
 26 27  1  0
 25 28  2  0
 27 28  1  0
 27 29  1  0
M  CHG  1  14  -1
M  END
