mac-x0365-mac-x0373
     RDKit          3D

 19 20  0  0  0  0  0  0  0  0999 V2000
   -0.3340   14.2390   -1.7110 C   0  0  0  0  0  0  0  0  0  0  0  0
   -1.6680   14.3600   -2.5220 C   0  0  2  0  0  0  0  0  0  0  0  0
   -1.5190   15.4620   -3.4400 O   0  0  0  0  0  0  0  0  0  0  0  0
   -0.2380   13.2010   -0.8320 O   0  0  0  0  0  0  0  0  0  0  0  0
    0.6400   14.9760   -1.8500 O   0  0  0  0  0  0  0  0  0  0  0  0
   -2.9950   14.6270   -1.7680 C   0  0  0  0  0  0  0  0  0  0  0  0
   -1.8220   13.1110   -3.4080 C   0  0  0  0  0  0  0  0  0  0  0  0
   -4.1810   14.8410   -2.4860 C   0  0  0  0  0  0  0  0  0  0  0  0
   -3.0810   14.6490   -0.3460 C   0  0  0  0  0  0  0  0  0  0  0  0
   -1.1080   12.9600   -4.6180 C   0  0  0  0  0  0  0  0  0  0  0  0
   -2.6940   12.0750   -3.0260 C   0  0  0  0  0  0  0  0  0  0  0  0
   -5.3840   15.0420   -1.8270 C   0  0  0  0  0  0  0  0  0  0  0  0
   -4.3080   14.8550    0.3090 C   0  0  0  0  0  0  0  0  0  0  0  0
   -1.2670   11.8170   -5.4110 C   0  0  0  0  0  0  0  0  0  0  0  0
   -2.8500   10.9350   -3.8180 C   0  0  0  0  0  0  0  0  0  0  0  0
   -6.5000   15.2300   -2.5410 F   0  0  0  0  0  0  0  0  0  0  0  0
   -5.4560   15.0420   -0.4490 C   0  0  0  0  0  0  0  0  0  0  0  0
   -2.1390   10.8070   -5.0080 C   0  0  0  0  0  0  0  0  0  0  0  0
   -6.6540   15.2190    0.1650 O   0  0  0  0  0  0  0  0  0  0  0  0
  1  2  1  0
  2  3  1  6
  1  4  1  0
  1  5  2  0
  2  6  1  0
  2  7  1  0
  6  8  2  0
  6  9  1  0
  7 10  2  0
  7 11  1  0
  8 12  1  0
  9 13  2  0
 10 14  1  0
 11 15  2  0
 12 16  1  0
 12 17  2  0
 13 17  1  0
 14 18  2  0
 15 18  1  0
 17 19  1  0
M  END
