mac-x0255-mac-x0380
     RDKit          3D

 27 30  0  0  0  0  0  0  0  0999 V2000
    1.1620   12.9580   -1.6540 O   0  0  0  0  0  0  0  0  0  0  0  0
    0.6390   12.1550   -2.6020 C   0  0  0  0  0  0  0  0  0  0  0  0
    0.0510   11.1340   -2.3020 O   0  0  0  0  0  0  0  0  0  0  0  0
    0.8980   12.6860   -3.9730 C   0  0  0  0  0  0  0  0  0  0  0  0
    0.3560   14.0600   -4.2330 C   0  0  0  0  0  0  0  0  0  0  0  0
   -0.6260   14.8750   -3.6980 C   0  0  0  0  0  0  0  0  0  0  0  0
    1.0690   14.8770   -5.4870 S   0  0  0  0  0  0  0  0  0  0  0  0
   -1.4230   14.5310   -2.6580 O   0  0  0  0  0  0  0  0  0  0  0  0
   -0.7480   16.1450   -4.3550 C   0  0  0  0  0  0  0  0  0  0  0  0
    0.1260   16.2840   -5.3570 C   0  0  0  0  0  0  0  0  0  0  0  0
   -2.7070   14.9740   -2.8020 C   0  0  0  0  0  0  0  0  0  0  0  0
   -1.5960   17.2190   -4.1380 C   0  0  0  0  0  0  0  0  0  0  0  0
    0.1810   17.4540   -6.1310 C   0  0  0  0  0  0  0  0  0  0  0  0
   -3.2380   15.3110   -3.8470 O   0  0  0  0  0  0  0  0  0  0  0  0
   -1.5660   18.3870   -4.9040 C   0  0  0  0  0  0  0  0  0  0  0  0
   -0.6760   18.4970   -5.8980 C   0  0  0  0  0  0  0  0  0  0  0  0
   -3.4560   15.0030   -1.5090 C   0  0  0  0  0  0  0  0  0  0  0  0
   -4.8500   14.9970   -1.6140 C   0  0  0  0  0  0  0  0  0  0  0  0
   -2.8600   15.0300   -0.2370 C   0  0  0  0  0  0  0  0  0  0  0  0
   -5.6550   15.0050   -0.4750 C   0  0  0  0  0  0  0  0  0  0  0  0
   -3.6680   15.0370    0.9110 C   0  0  0  0  0  0  0  0  0  0  0  0
   -5.0640   15.0180    0.7920 C   0  0  0  0  0  0  0  0  0  0  0  0
   -7.4180   14.9870   -0.6840 S   0  0  0  0  0  0  0  0  0  0  0  0
   -5.8370   15.0080    1.9690 N   0  0  0  0  0  0  0  0  0  0  0  0
   -7.8100   14.0650    0.8120 C   0  0  0  0  0  0  0  0  0  0  0  0
   -7.1600   14.6500    2.0380 C   0  0  0  0  0  0  0  0  0  0  0  0
   -7.7990   14.8150    3.0810 O   0  0  0  0  0  0  0  0  0  0  0  0
  1  2  1  0
  2  3  2  0
  2  4  1  0
  4  5  1  0
  5  6  2  0
  5  7  1  0
  6  8  1  0
  6  9  1  0
  7 10  1  0
  9 10  2  0
  8 11  1  0
  9 12  1  0
 10 13  1  0
 11 14  2  0
 12 15  2  0
 13 16  2  0
 15 16  1  0
 11 17  1  0
 17 18  2  0
 17 19  1  0
 18 20  1  0
 19 21  2  0
 20 22  2  0
 21 22  1  0
 20 23  1  0
 22 24  1  0
 23 25  1  0
 24 26  1  0
 25 26  1  0
 26 27  2  0
M  END
