mac-x0123-mac-x0381
     RDKit          3D

 26 30  0  0  0  0  0  0  0  0999 V2000
   -3.3000   14.5810    1.5680 N   0  0  0  0  0  0  0  0  0  0  0  0
   -4.4130   14.6130    0.7250 C   0  0  0  0  0  0  0  0  0  0  0  0
   -5.6520   14.4750    1.1470 C   0  0  0  0  0  0  0  0  0  0  0  0
   -4.2390   14.7660   -0.6570 N   0  0  0  0  0  0  0  0  0  0  0  0
   -5.3370   14.7850   -1.5430 C   0  0  0  0  0  0  0  0  0  0  0  0
   -6.7730   14.5360    0.1740 C   0  0  0  0  0  0  0  0  0  0  0  0
   -6.1670   14.2460    2.4720 C   0  0  0  0  0  0  0  0  0  0  0  0
   -3.0800   14.8980   -1.3420 N   0  0  0  0  0  0  0  0  0  0  0  0
   -6.6420   14.6740   -1.1070 N   0  0  0  0  0  0  0  0  0  0  0  0
   -8.0890   14.4350    0.9080 C   0  0  0  0  0  0  0  0  0  0  0  0
   -7.6520   13.9770    2.3330 C   0  0  2  0  0  0  0  0  0  0  0  0
   -4.8670   14.9180   -2.7630 N   0  0  0  0  0  0  0  0  0  0  0  0
   -3.5190   14.9840   -2.5930 C   0  0  0  0  0  0  0  0  0  0  0  0
   -8.3520   14.5090    3.6090 C   0  0  0  0  0  0  0  0  0  0  0  0
   -8.4250   13.4170    4.5440 N   0  0  0  0  0  0  0  0  0  0  0  0
   -7.5310   15.3960    4.3900 N   0  0  0  0  0  0  0  0  0  0  0  0
   -9.7090   15.1010    3.2830 C   0  0  0  0  0  0  0  0  0  0  0  0
   -9.8070   15.9520    2.1720 C   0  0  0  0  0  0  0  0  0  0  0  0
  -10.8650   14.8440    4.0240 C   0  0  0  0  0  0  0  0  0  0  0  0
  -11.0110   16.5340    1.7860 C   0  0  0  0  0  0  0  0  0  0  0  0
  -12.0820   15.4190    3.6550 C   0  0  0  0  0  0  0  0  0  0  0  0
  -12.1680   16.2600    2.5400 C   0  0  0  0  0  0  0  0  0  0  0  0
  -11.0840   17.3770    0.6710 C   0  0  0  0  0  0  0  0  0  0  0  0
  -13.3840   16.8380    2.1540 C   0  0  0  0  0  0  0  0  0  0  0  0
  -12.3030   17.9440    0.2990 C   0  0  0  0  0  0  0  0  0  0  0  0
  -13.4500   17.6730    1.0410 C   0  0  0  0  0  0  0  0  0  0  0  0
  1  2  1  0
  2  3  2  0
  2  4  1  0
  4  5  1  0
  3  6  1  0
  3  7  1  0
  4  8  1  0
  5  9  1  0
  6  9  2  0
  6 10  1  0
  7 11  1  0
 10 11  1  0
  5 12  2  0
  8 13  2  0
 12 13  1  0
 11 14  1  1
 14 15  1  0
 14 16  1  0
 14 17  1  0
 17 18  2  0
 17 19  1  0
 18 20  1  0
 19 21  2  0
 20 22  2  0
 21 22  1  0
 20 23  1  0
 22 24  1  0
 23 25  2  0
 24 26  2  0
 25 26  1  0
M  END
