mac-x0131-diamond-x0631_0_A
     RDKit          3D

 36 40  0  0  0  0  0  0  0  0999 V2000
   -3.5610   15.1250   -4.1890 C   0  0  0  0  0  0  0  0  0  0  0  0
   -3.0550   15.0380   -2.7960 C   0  0  0  0  0  0  0  0  0  0  0  0
   -3.7390   15.1250   -1.5840 C   0  0  0  0  0  0  0  0  0  0  0  0
   -1.7170   14.8430   -2.5020 N   0  0  0  0  0  0  0  0  0  0  0  0
   -5.2030   15.3420   -1.3840 C   0  0  0  0  0  0  0  0  0  0  0  0
   -0.6220   14.7010   -3.4570 C   0  0  0  0  0  0  0  0  0  0  0  0
   -2.7740   14.9690   -0.5380 C   0  0  0  0  0  0  0  0  0  0  0  0
   -1.5360   14.7960   -1.1400 C   0  0  0  0  0  0  0  0  0  0  0  0
   -2.7840   14.9570    0.8710 C   0  0  0  0  0  0  0  0  0  0  0  0
   -0.3610   14.6200   -0.5110 N   0  0  0  0  0  0  0  0  0  0  0  0
   -0.3740   13.2610   -3.6200 C   0  0  0  0  0  0  0  0  0  0  0  0
   -3.9390   15.1330    1.6210 N   0  0  0  0  0  0  0  0  0  0  0  0
   -1.6260   14.7720    1.5420 N   0  0  0  0  0  0  0  0  0  0  0  0
   -0.5000   14.6220    0.8260 C   0  0  0  0  0  0  0  0  0  0  0  0
    0.4650   12.3590   -3.0090 C   0  0  0  0  0  0  0  0  0  0  0  0
   -1.1250   12.6320   -4.5610 O   0  0  0  0  0  0  0  0  0  0  0  0
   -0.7690   11.3250   -4.5510 C   0  0  0  0  0  0  0  0  0  0  0  0
    0.1960   11.1110   -3.6070 C   0  0  0  0  0  0  0  0  0  0  0  0
   -1.4680   10.4390   -5.5010 C   0  0  0  0  0  0  0  0  0  0  0  0
   -0.8330    9.0470   -5.4840 C   0  0  0  0  0  0  0  0  0  0  0  0
   -0.3300    8.4940   -6.8500 C   0  0  1  0  0  0  0  0  0  0  0  0
   -1.5610    8.0440   -7.6670 C   0  0  0  0  0  0  0  0  0  0  0  0
    0.5620    9.4490   -7.6060 N   0  0  0  0  0  0  0  0  0  0  0  0
   -2.6760    9.0750   -7.7400 C   0  0  0  0  0  0  0  0  0  0  0  0
    0.1430   10.8330   -7.5860 N   0  0  0  0  0  0  0  0  0  0  0  0
    0.6330    9.1610   -9.0080 N   0  0  0  0  0  0  0  0  0  0  0  0
    0.1870   11.3480   -8.9420 N   0  0  0  0  0  0  0  0  0  0  0  0
    1.0580   10.3970   -9.5850 C   0  0  2  0  0  0  0  0  0  0  0  0
    0.9450   10.4050  -11.0070 N   0  0  0  0  0  0  0  0  0  0  0  0
    1.8730    9.5260  -11.7170 C   0  0  2  0  0  0  0  0  0  0  0  0
    2.8630    8.9320  -10.8850 O   0  0  0  0  0  0  0  0  0  0  0  0
    2.5140   10.0630  -13.0380 C   0  0  2  0  0  0  0  0  0  0  0  0
    3.8710    9.6280  -13.2050 O   0  0  0  0  0  0  0  0  0  0  0  0
    2.5570   11.5540  -13.2940 C   0  0  0  0  0  0  0  0  0  0  0  0
    3.5510   11.6410  -14.4350 C   0  0  0  0  0  0  0  0  0  0  0  0
    4.3440   10.3430  -14.3550 C   0  0  0  0  0  0  0  0  0  0  0  0
  1  2  1  0
  2  3  2  0
  2  4  1  0
  3  5  1  0
  4  6  1  0
  3  7  1  0
  4  8  1  0
  7  8  2  0
  7  9  1  0
  8 10  1  0
  6 11  1  0
  9 12  1  0
  9 13  2  0
 10 14  2  0
 13 14  1  0
 11 15  2  0
 11 16  1  0
 16 17  1  0
 15 18  1  0
 17 18  2  0
 17 19  1  0
 19 20  1  0
 21 20  1  1
 21 22  1  0
 21 23  1  0
 22 24  1  0
 23 25  1  0
 23 26  1  0
 25 27  1  0
 26 28  1  0
 27 28  1  0
 28 29  1  6
 29 30  1  0
 30 31  1  1
 30 32  1  0
 32 33  1  0
 32 34  1  1
 34 35  1  0
 33 36  1  0
 35 36  1  0
M  END
