mac-x0226-diamond-x0805_0_A
     RDKit          3D

 28 31  0  0  0  0  0  0  0  0999 V2000
    1.7330   12.4590   -2.4470 O   0  0  0  0  0  0  0  0  0  0  0  0
    0.6710   12.0020   -3.2670 C   0  0  0  0  0  0  0  0  0  0  0  0
   -0.0480   10.9420   -2.6280 O   0  0  0  0  0  0  0  0  0  0  0  0
    1.0000   11.7890   -4.6460 C   0  0  0  0  0  0  0  0  0  0  0  0
   -0.1540   13.1430   -3.8020 C   0  0  2  0  0  0  0  0  0  0  0  0
    2.1730   12.0300   -5.3560 C   0  0  0  0  0  0  0  0  0  0  0  0
    0.1080   11.3060   -5.5650 C   0  0  0  0  0  0  0  0  0  0  0  0
    0.5700   13.7270   -5.0310 C   0  0  0  0  0  0  0  0  0  0  0  0
   -0.3230   14.2260   -2.8010 C   0  0  2  0  0  0  0  0  0  0  0  0
    2.0210   11.7040   -6.6280 N   0  0  0  0  0  0  0  0  0  0  0  0
    0.7500   11.2500   -6.7530 N   0  0  0  0  0  0  0  0  0  0  0  0
   -1.7860   14.2290   -2.4750 C   0  0  0  0  0  0  0  0  0  0  0  0
    1.8210   14.2120   -4.5840 O   0  0  0  0  0  0  0  0  0  0  0  0
    0.2420   15.5810   -3.2810 C   0  0  0  0  0  0  0  0  0  0  0  0
    0.2060   10.7680   -7.9610 C   0  0  0  0  0  0  0  0  0  0  0  0
   -2.7630   13.5760   -3.2470 C   0  0  0  0  0  0  0  0  0  0  0  0
   -2.1560   14.9110   -1.3540 C   0  0  0  0  0  0  0  0  0  0  0  0
    1.5900   15.4760   -4.0060 C   0  0  0  0  0  0  0  0  0  0  0  0
   -1.0050   10.0740   -7.9270 C   0  0  0  0  0  0  0  0  0  0  0  0
    0.8480   10.9500   -9.1810 C   0  0  0  0  0  0  0  0  0  0  0  0
   -3.4700   14.9990   -0.9610 C   0  0  0  0  0  0  0  0  0  0  0  0
   -4.1010   13.6360   -2.8610 C   0  0  0  0  0  0  0  0  0  0  0  0
   -3.8850   15.6940    0.1340 O   0  0  0  0  0  0  0  0  0  0  0  0
   -1.5480    9.5730   -9.1050 C   0  0  0  0  0  0  0  0  0  0  0  0
    0.3090   10.4550  -10.3490 C   0  0  0  0  0  0  0  0  0  0  0  0
   -4.4480   14.3540   -1.7150 C   0  0  0  0  0  0  0  0  0  0  0  0
   -4.4680   14.9840    1.2100 C   0  0  0  0  0  0  0  0  0  0  0  0
   -0.8900    9.7630  -10.3170 C   0  0  0  0  0  0  0  0  0  0  0  0
  2  1  1  0
  2  3  1  0
  2  4  1  0
  5  2  1  1
  4  6  1  0
  4  7  2  0
  5  8  1  0
  5  9  1  0
  6 10  2  0
  7 11  1  0
 10 11  1  0
  9 12  1  6
  8 13  1  0
  9 14  1  0
 11 15  1  0
 12 16  2  0
 12 17  1  0
 13 18  1  0
 14 18  1  0
 15 19  2  0
 15 20  1  0
 17 21  2  0
 16 22  1  0
 21 23  1  0
 19 24  1  0
 20 25  2  0
 21 26  1  0
 22 26  2  0
 23 27  1  0
 24 28  2  0
 25 28  1  0
M  END
