mac-x0131-mac-x0283
     RDKit          3D

 27 31  0  0  0  0  0  0  0  0999 V2000
   -4.1850   14.8130   -3.9000 C   0  0  0  0  0  0  0  0  0  0  0  0
   -3.1800   14.8040   -2.8080 C   0  0  0  0  0  0  0  0  0  0  0  0
   -3.2860   14.8360   -1.4260 C   0  0  0  0  0  0  0  0  0  0  0  0
   -1.8010   14.7450   -3.0290 N   0  0  0  0  0  0  0  0  0  0  0  0
   -1.0820   14.6630   -4.2780 C   0  0  0  0  0  0  0  0  0  0  0  0
   -2.0150   14.8010   -0.8410 C   0  0  0  0  0  0  0  0  0  0  0  0
   -1.1160   14.7540   -1.8500 C   0  0  0  0  0  0  0  0  0  0  0  0
   -4.3110   14.8900   -0.4820 C   0  0  0  0  0  0  0  0  0  0  0  0
   -1.5210   14.8050    0.4810 C   0  0  0  0  0  0  0  0  0  0  0  0
    0.2050   14.7200   -1.7110 N   0  0  0  0  0  0  0  0  0  0  0  0
   -0.7800   13.2190   -4.3070 C   0  0  0  0  0  0  0  0  0  0  0  0
   -5.6560   14.5370   -0.4720 C   0  0  0  0  0  0  0  0  0  0  0  0
   -3.7680   15.3980    0.6770 C   0  0  0  0  0  0  0  0  0  0  0  0
   -2.2840   14.8360    1.6460 N   0  0  0  0  0  0  0  0  0  0  0  0
   -0.2100   14.7830    0.6740 N   0  0  0  0  0  0  0  0  0  0  0  0
    0.5640   14.7440   -0.4260 C   0  0  0  0  0  0  0  0  0  0  0  0
    0.3540   12.4360   -4.2950 C   0  0  0  0  0  0  0  0  0  0  0  0
   -1.8910   12.4280   -4.3380 O   0  0  0  0  0  0  0  0  0  0  0  0
   -6.4760   14.0340   -1.4330 O   0  0  0  0  0  0  0  0  0  0  0  0
   -6.3820   14.6760    0.6920 C   0  0  0  0  0  0  0  0  0  0  0  0
   -4.4740   15.5370    1.8170 C   0  0  0  0  0  0  0  0  0  0  0  0
   -1.4760   11.1490   -4.3400 C   0  0  0  0  0  0  0  0  0  0  0  0
   -0.1130   11.0940   -4.3120 C   0  0  0  0  0  0  0  0  0  0  0  0
   -7.6580   14.2410    0.3840 C   0  0  0  0  0  0  0  0  0  0  0  0
   -7.7470   13.8520   -0.8850 N   0  0  0  0  0  0  0  0  0  0  0  0
   -5.7880   15.1660    1.8440 C   0  0  0  0  0  0  0  0  0  0  0  0
   -8.6440   14.2360    1.2960 N   0  0  0  0  0  0  0  0  0  0  0  0
  1  2  1  0
  2  3  2  0
  2  4  1  0
  4  5  1  0
  3  6  1  0
  4  7  1  0
  6  7  2  0
  3  8  1  0
  6  9  1  0
  7 10  1  0
  5 11  1  0
  8 12  1  0
  8 13  2  0
  9 14  1  0
  9 15  2  0
 10 16  2  0
 15 16  1  0
 11 17  2  0
 11 18  1  0
 12 19  1  0
 12 20  2  0
 13 21  1  0
 18 22  1  0
 17 23  1  0
 22 23  2  0
 20 24  1  0
 19 25  1  0
 24 25  2  0
 20 26  1  0
 21 26  2  0
 24 27  1  0
M  END
