mac-x0161-diamond-x0905_0_A
     RDKit          3D

 19 21  0  0  0  0  0  0  0  0999 V2000
   -4.6200   15.3080    1.3060 N   0  0  0  0  0  0  0  0  0  0  0  0
   -3.6780   14.5460    0.4680 C   0  0  2  0  0  0  0  0  0  0  0  0
   -2.2340   15.0680    0.6470 C   0  0  2  0  0  0  0  0  0  0  0  0
   -4.2160   14.4960   -0.8970 N   0  0  0  0  0  0  0  0  0  0  0  0
   -5.5640   15.1250   -0.9290 O   0  0  0  0  0  0  0  0  0  0  0  0
   -3.3720   15.1400   -1.9100 C   0  0  0  0  0  0  0  0  0  0  0  0
   -1.3290   14.7960   -0.5850 C   0  0  2  0  0  0  0  0  0  0  0  0
   -1.5280   14.3950    1.7450 N   0  0  0  0  0  0  0  0  0  0  0  0
   -1.9750   14.6690   -1.8840 N   0  0  0  0  0  0  0  0  0  0  0  0
   -0.5180   13.7000   -0.1440 N   0  0  0  0  0  0  0  0  0  0  0  0
   -0.2150   14.1330    1.2030 C   0  0  0  0  0  0  0  0  0  0  0  0
   -1.1950   14.8050   -3.1130 C   0  0  0  0  0  0  0  0  0  0  0  0
   -0.8480   13.4380   -3.5680 C   0  0  0  0  0  0  0  0  0  0  0  0
   -1.2200   12.6560   -4.6320 C   0  0  0  0  0  0  0  0  0  0  0  0
    0.0290   12.7460   -2.7860 O   0  0  0  0  0  0  0  0  0  0  0  0
    0.2360   11.4900   -3.3280 N   0  0  0  0  0  0  0  0  0  0  0  0
   -0.5200   11.4610   -4.4250 C   0  0  0  0  0  0  0  0  0  0  0  0
   -0.5760   10.3720   -5.2220 O   0  0  0  0  0  0  0  0  0  0  0  0
   -1.7520   10.2970   -6.0200 C   0  0  0  0  0  0  0  0  0  0  0  0
  2  1  1  1
  2  3  1  0
  2  4  1  0
  4  5  1  0
  4  6  1  0
  3  7  1  0
  3  8  1  1
  6  9  1  0
  7  9  1  0
  7 10  1  1
  8 11  1  0
 10 11  1  0
  9 12  1  0
 12 13  1  0
 13 14  2  0
 13 15  1  0
 15 16  1  0
 14 17  1  0
 16 17  2  0
 17 18  1  0
 18 19  1  0
M  END
