mac-x0224-mac-x0182
     RDKit          3D

 25 27  0  0  0  0  0  0  0  0999 V2000
   -5.1910   14.9040    1.1940 C   0  0  0  0  0  0  0  0  0  0  0  0
   -3.3990   15.1290    1.2380 S   0  0  0  0  0  0  0  0  0  0  0  0
   -2.9850   14.9730   -0.4830 C   0  0  0  0  0  0  0  0  0  0  0  0
   -1.6620   14.6590   -0.7810 C   0  0  0  0  0  0  0  0  0  0  0  0
   -3.9060   15.1530   -1.5220 C   0  0  0  0  0  0  0  0  0  0  0  0
   -1.2460   14.5280   -2.1030 C   0  0  0  0  0  0  0  0  0  0  0  0
   -3.4950   15.0170   -2.8550 C   0  0  0  0  0  0  0  0  0  0  0  0
    0.1790   14.2090   -2.2860 C   0  0  0  0  0  0  0  0  0  0  0  0
   -2.1610   14.7040   -3.1500 C   0  0  0  0  0  0  0  0  0  0  0  0
   -1.7790   14.5800   -4.4640 O   0  0  0  0  0  0  0  0  0  0  0  0
    0.9450   13.8960   -1.4010 O   0  0  0  0  0  0  0  0  0  0  0  0
    0.5750   14.3050   -3.5610 O   0  0  0  0  0  0  0  0  0  0  0  0
   -1.9920   13.2530   -4.9880 C   0  0  0  0  0  0  0  0  0  0  0  0
   -1.8000   12.1720   -4.0110 N   0  0  0  0  0  0  0  0  0  0  0  0
   -0.7120   11.1430   -4.3000 S   0  0  2  0  0  0  0  0  0  0  0  0
   -0.0070   10.3320   -3.3390 O   0  0  0  0  0  0  0  0  0  0  0  0
    0.4600   12.0370   -5.1040 N   0  0  0  0  0  0  0  0  0  0  0  0
   -1.1320   10.1670   -5.6710 C   0  0  0  0  0  0  0  0  0  0  0  0
    0.7300   11.5020   -6.3340 C   0  0  0  0  0  0  0  0  0  0  0  0
   -0.2620   10.4710   -6.7090 C   0  0  0  0  0  0  0  0  0  0  0  0
   -2.1410    9.2300   -5.7810 C   0  0  0  0  0  0  0  0  0  0  0  0
    1.6720   11.7960   -7.0240 O   0  0  0  0  0  0  0  0  0  0  0  0
   -2.2640    8.5760   -7.0080 C   0  0  0  0  0  0  0  0  0  0  0  0
   -0.3750    9.8270   -7.9330 C   0  0  0  0  0  0  0  0  0  0  0  0
   -1.3890    8.8710   -8.0750 C   0  0  0  0  0  0  0  0  0  0  0  0
  1  2  1  0
  2  3  1  0
  3  4  2  0
  3  5  1  0
  4  6  1  0
  5  7  2  0
  6  8  1  0
  6  9  2  0
  7  9  1  0
  9 10  1  0
  8 11  2  0
  8 12  1  0
 10 13  1  0
 13 14  1  0
 14 15  2  0
 15 16  2  0
 15 17  1  6
 15 18  1  0
 17 19  1  0
 18 20  2  0
 19 20  1  0
 18 21  1  0
 19 22  2  0
 21 23  2  0
 20 24  1  0
 23 25  1  0
 24 25  2  0
M  END
