mac-x0404-mac-x0453
     RDKit          3D

 24 26  0  0  0  0  0  0  0  0999 V2000
    1.3840   12.8540   -2.1620 O   0  0  0  0  0  0  0  0  0  0  0  0
    0.9370   12.0780   -3.1800 C   0  0  0  0  0  0  0  0  0  0  0  0
    0.4050   10.9940   -2.9850 O   0  0  0  0  0  0  0  0  0  0  0  0
    1.1620   12.6840   -4.5610 C   0  0  0  0  0  0  0  0  0  0  0  0
    1.2260   14.1140   -4.4390 O   0  0  0  0  0  0  0  0  0  0  0  0
   -0.0200   14.7080   -4.5280 C   0  0  0  0  0  0  0  0  0  0  0  0
   -0.1250   16.0190   -5.0240 C   0  0  0  0  0  0  0  0  0  0  0  0
   -1.1560   14.0200   -4.1150 C   0  0  0  0  0  0  0  0  0  0  0  0
   -1.3870   16.6330   -5.1180 C   0  0  0  0  0  0  0  0  0  0  0  0
   -2.4060   14.6450   -4.1960 C   0  0  0  0  0  0  0  0  0  0  0  0
    0.9870   16.7420   -5.4250 C   0  0  0  0  0  0  0  0  0  0  0  0
   -3.6390   13.9550   -3.7020 C   0  0  0  0  0  0  0  0  0  0  0  0
   -2.5130   15.9310   -4.7060 C   0  0  0  0  0  0  0  0  0  0  0  0
   -1.4970   17.9380   -5.6140 C   0  0  0  0  0  0  0  0  0  0  0  0
    0.8830   18.0400   -5.9080 C   0  0  0  0  0  0  0  0  0  0  0  0
   -0.3630   18.6370   -6.0050 C   0  0  0  0  0  0  0  0  0  0  0  0
   -3.7140   14.2430   -2.2280 C   0  0  0  0  0  0  0  0  0  0  0  0
   -2.5740   14.3750   -1.4640 N   0  0  0  0  0  0  0  0  0  0  0  0
   -4.7790   14.4050   -1.4760 N   0  0  0  0  0  0  0  0  0  0  0  0
   -4.3120   14.6370   -0.2050 C   0  0  0  0  0  0  0  0  0  0  0  0
   -2.9420   14.6250   -0.1780 C   0  0  0  0  0  0  0  0  0  0  0  0
   -5.2640   14.8540    0.8980 C   0  0  0  0  0  0  0  0  0  0  0  0
   -5.9460   13.5630    1.3430 C   0  0  0  0  0  0  0  0  0  0  0  0
   -7.0020   13.8230    2.3240 N   0  0  0  0  0  0  0  0  0  0  0  0
  1  2  1  0
  2  3  2  0
  2  4  1  0
  4  5  1  0
  5  6  1  0
  6  7  2  0
  6  8  1  0
  7  9  1  0
  8 10  2  0
  7 11  1  0
 10 12  1  0
  9 13  2  0
 10 13  1  0
  9 14  1  0
 11 15  2  0
 14 16  2  0
 15 16  1  0
 12 17  1  0
 17 18  1  0
 17 19  2  0
 19 20  1  0
 18 21  1  0
 20 21  2  0
 20 22  1  0
 22 23  1  0
 23 24  1  0
M  END
