mac-x0138-mac-x0161
     RDKit          3D

 19 21  0  0  0  0  0  0  0  0999 V2000
   -1.0030   14.8440   -3.3410 C   0  0  0  0  0  0  0  0  0  0  0  0
   -2.0540   14.9480   -2.3440 N   0  0  0  0  0  0  0  0  0  0  0  0
   -3.3800   15.2190   -2.5860 C   0  0  0  0  0  0  0  0  0  0  0  0
   -0.6930   13.4560   -3.6920 C   0  0  0  0  0  0  0  0  0  0  0  0
   -1.9050   14.8060   -0.9910 C   0  0  0  0  0  0  0  0  0  0  0  0
   -1.0550   12.6460   -4.7380 C   0  0  0  0  0  0  0  0  0  0  0  0
    0.1200   12.7710   -2.8420 O   0  0  0  0  0  0  0  0  0  0  0  0
   -4.0810   15.2730   -1.4750 N   0  0  0  0  0  0  0  0  0  0  0  0
   -3.1670   15.0240   -0.4740 C   0  0  0  0  0  0  0  0  0  0  0  0
   -0.7810   14.5290   -0.3030 N   0  0  0  0  0  0  0  0  0  0  0  0
    0.3010   11.4870   -3.3240 N   0  0  0  0  0  0  0  0  0  0  0  0
   -0.4130   11.4360   -4.4500 C   0  0  0  0  0  0  0  0  0  0  0  0
   -0.4900   10.3240   -5.2050 O   0  0  0  0  0  0  0  0  0  0  0  0
   -3.2850   14.9630    0.9170 C   0  0  0  0  0  0  0  0  0  0  0  0
   -1.0190   14.4790    1.0200 C   0  0  0  0  0  0  0  0  0  0  0  0
   -4.4860   15.1830    1.5650 N   0  0  0  0  0  0  0  0  0  0  0  0
    0.0150   14.1840    1.8660 N   0  0  0  0  0  0  0  0  0  0  0  0
   -1.7210   10.1900   -5.9030 C   0  0  0  0  0  0  0  0  0  0  0  0
   -2.1780   14.6810    1.6440 N   0  0  0  0  0  0  0  0  0  0  0  0
  1  2  1  0
  2  3  1  0
  1  4  1  0
  2  5  1  0
  4  6  2  0
  4  7  1  0
  3  8  2  0
  5  9  2  0
  8  9  1  0
  5 10  1  0
  7 11  1  0
  6 12  1  0
 11 12  2  0
 12 13  1  0
  9 14  1  0
 10 15  2  0
 14 16  1  0
 15 17  1  0
 13 18  1  0
 14 19  2  0
 15 19  1  0
M  END
