mac-x0415-diamond-x0626_0_A
     RDKit          3D

 27 29  0  0  0  0  0  0  0  0999 V2000
    0.3800   11.2060   -2.8980 O   0  0  0  0  0  0  0  0  0  0  0  0
    0.5020   12.5070   -3.2180 C   0  0  0  0  0  0  0  0  0  0  0  0
    0.1090   13.3940   -2.3890 N   0  0  0  0  0  0  0  0  0  0  0  0
    1.0800   12.8460   -4.5570 C   0  0  0  0  0  0  0  0  0  0  0  0
   -0.4870   13.0890   -1.1150 C   0  0  0  0  0  0  0  0  0  0  0  0
    0.7820   14.2930   -4.5490 C   0  0  0  0  0  0  0  0  0  0  0  0
    0.3870   13.7740   -0.0640 C   0  0  0  0  0  0  0  0  0  0  0  0
    1.7710   15.3440   -4.3580 C   0  0  0  0  0  0  0  0  0  0  0  0
   -0.3190   15.0250   -4.6890 C   0  0  0  0  0  0  0  0  0  0  0  0
   -0.3050   14.7600    0.8380 C   0  0  0  0  0  0  0  0  0  0  0  0
    1.3760   16.5830   -4.3600 N   0  0  0  0  0  0  0  0  0  0  0  0
   -0.0490   16.4670   -4.4790 C   0  0  1  0  0  0  0  0  0  0  0  0
   -1.6750   14.6610   -4.9580 C   0  0  0  0  0  0  0  0  0  0  0  0
   -0.8210   17.3910   -5.3490 C   0  0  0  0  0  0  0  0  0  0  0  0
   -2.4850   15.5940   -5.5100 C   0  0  0  0  0  0  0  0  0  0  0  0
   -1.7150   14.8150    0.4740 C   0  0  0  0  0  0  0  0  0  0  0  0
   -4.2430   15.1530   -5.9320 Br  0  0  0  0  0  0  0  0  0  0  0  0
   -2.0060   16.9540   -5.8220 C   0  0  0  0  0  0  0  0  0  0  0  0
   -2.6510   14.7680    1.4720 N   0  0  0  0  0  0  0  0  0  0  0  0
   -2.1950   14.9100   -0.8160 C   0  0  0  0  0  0  0  0  0  0  0  0
   -3.8340   14.8390    0.9080 C   0  0  0  0  0  0  0  0  0  0  0  0
   -3.8920   14.9590   -0.7960 S   0  0  0  0  0  0  0  0  0  0  0  0
   -5.0660   14.8300    1.4720 N   0  0  0  0  0  0  0  0  0  0  0  0
   -6.1980   14.6720    0.7080 C   0  0  0  0  0  0  0  0  0  0  0  0
   -6.3020   14.7730   -0.5090 O   0  0  0  0  0  0  0  0  0  0  0  0
   -7.3850   14.3440    1.5930 C   0  0  0  0  0  0  0  0  0  0  0  0
   -8.7140   14.6440    0.9190 C   0  0  0  0  0  0  0  0  0  0  0  0
  1  2  1  0
  2  3  2  3
  2  4  1  0
  3  5  1  0
  4  6  1  0
  5  7  1  0
  6  8  1  0
  6  9  2  0
  7 10  1  0
  8 11  2  0
  9 12  1  0
 11 12  1  0
  9 13  1  0
 12 14  1  6
 13 15  2  0
 10 16  1  0
 15 17  1  0
 14 18  2  0
 15 18  1  0
 16 19  1  0
 16 20  2  0
 19 21  2  0
 20 22  1  0
 21 22  1  0
 21 23  1  0
 23 24  1  0
 24 25  2  0
 24 26  1  0
 26 27  1  0
M  END
