mac-x0509-mac-x0301
     RDKit          3D

 25 28  0  0  0  0  0  0  0  0999 V2000
   -2.1540    8.0900   -5.4950 O   0  0  0  0  0  0  0  0  0  0  0  0
   -1.3710    8.5080   -6.3280 C   0  0  0  0  0  0  0  0  0  0  0  0
   -1.4950    9.8170   -7.1370 C   0  0  1  0  0  0  0  0  0  0  0  0
   -0.1940    7.8730   -6.7320 N   0  0  0  0  0  0  0  0  0  0  0  0
   -1.5460   11.1270   -6.3010 C   0  0  0  0  0  0  0  0  0  0  0  0
   -0.4100    9.6340   -8.1640 C   0  0  0  0  0  0  0  0  0  0  0  0
    0.3150    8.4810   -7.8710 C   0  0  0  0  0  0  0  0  0  0  0  0
   -0.2750   11.7010   -5.6160 C   0  0  0  0  0  0  0  0  0  0  0  0
   -0.0820   10.4090   -9.2640 C   0  0  0  0  0  0  0  0  0  0  0  0
    1.3770    8.0550   -8.6390 C   0  0  0  0  0  0  0  0  0  0  0  0
   -0.2410   13.2190   -5.2970 C   0  0  0  0  0  0  0  0  0  0  0  0
    0.9910    9.9970  -10.0580 C   0  0  0  0  0  0  0  0  0  0  0  0
    1.7130    8.8310   -9.7500 C   0  0  0  0  0  0  0  0  0  0  0  0
   -1.2620   13.5800   -4.2970 N   0  0  0  0  0  0  0  0  0  0  0  0
   -0.9250   14.1570   -3.1850 C   0  0  0  0  0  0  0  0  0  0  0  0
    0.3790   14.4300   -3.0010 O   0  0  0  0  0  0  0  0  0  0  0  0
   -1.7270   14.5750   -2.0100 C   0  0  0  0  0  0  0  0  0  0  0  0
   -1.2390   14.5120   -0.7060 C   0  0  0  0  0  0  0  0  0  0  0  0
   -3.0420   15.0460   -2.1840 C   0  0  0  0  0  0  0  0  0  0  0  0
   -2.0140   14.8890    0.3820 C   0  0  0  0  0  0  0  0  0  0  0  0
   -3.8220   15.4280   -1.0730 C   0  0  0  0  0  0  0  0  0  0  0  0
   -0.0100   14.0900   -0.3090 O   0  0  0  0  0  0  0  0  0  0  0  0
   -3.3090   15.3490    0.2290 C   0  0  0  0  0  0  0  0  0  0  0  0
   -1.3580   14.7550    1.5770 O   0  0  0  0  0  0  0  0  0  0  0  0
   -0.0490   14.4280    1.0940 C   0  0  0  0  0  0  0  0  0  0  0  0
  1  2  2  0
  2  3  1  0
  2  4  1  0
  3  5  1  1
  3  6  1  0
  4  7  1  0
  6  7  2  0
  5  8  1  0
  6  9  1  0
  7 10  1  0
  8 11  1  0
  9 12  2  0
 10 13  2  0
 12 13  1  0
 11 14  1  0
 14 15  2  3
 15 16  1  0
 15 17  1  0
 17 18  1  0
 17 19  2  0
 18 20  2  0
 19 21  1  0
 18 22  1  0
 20 23  1  0
 21 23  2  0
 20 24  1  0
 22 25  1  0
 24 25  1  0
M  END
