mac-x0441-diamond-x0962_3_A
     RDKit          3D

 17 18  0  0  0  0  0  0  0  0999 V2000
    0.4260   10.8330   -3.4330 O   0  0  0  0  0  0  0  0  0  0  0  0
    0.7170   12.1370   -3.5840 C   0  0  0  0  0  0  0  0  0  0  0  0
    1.1520   12.7550   -2.6240 O   0  0  0  0  0  0  0  0  0  0  0  0
    0.4730   12.7180   -4.9510 C   0  0  0  0  0  0  0  0  0  0  0  0
    0.2250   11.7600   -6.0210 N   0  0  0  0  0  0  0  0  0  0  0  0
    1.0200   11.7860   -7.1210 N   0  0  0  0  0  0  0  0  0  0  0  0
   -0.7350   10.7870   -6.1170 C   0  0  0  0  0  0  0  0  0  0  0  0
    0.5350   10.8070   -7.9310 C   0  0  0  0  0  0  0  0  0  0  0  0
   -0.5500   10.1710   -7.3220 C   0  0  0  0  0  0  0  0  0  0  0  0
   -1.7890   10.4340   -5.1520 C   0  0  0  0  0  0  0  0  0  0  0  0
    1.0230   10.4010   -9.2950 C   0  0  0  0  0  0  0  0  0  0  0  0
   -1.3850    9.0520   -7.8270 C   0  0  0  0  0  0  0  0  0  0  0  0
   -2.8240    9.4870   -5.7950 C   0  0  0  0  0  0  0  0  0  0  0  0
    1.7140    9.2310   -9.3070 F   0  0  0  0  0  0  0  0  0  0  0  0
   -0.0350   10.1890  -10.1180 F   0  0  0  0  0  0  0  0  0  0  0  0
    1.7400   11.3270   -9.9620 F   0  0  0  0  0  0  0  0  0  0  0  0
   -2.1800    8.4170   -6.6840 C   0  0  0  0  0  0  0  0  0  0  0  0
  1  2  1  0
  2  3  2  0
  2  4  1  0
  4  5  1  0
  5  6  1  0
  5  7  1  0
  6  8  2  0
  7  9  2  0
  8  9  1  0
  7 10  1  0
  8 11  1  0
  9 12  1  0
 10 13  1  0
 11 14  1  0
 11 15  1  0
 11 16  1  0
 12 17  1  0
 13 17  1  0
M  END
