mac-x0321-diamond-x0592_0_A
     RDKit          3D

 13 13  0  0  0  0  0  0  0  0999 V2000
   -4.4300   15.2210    1.8050 Cl  0  0  0  0  0  0  0  0  0  0  0  0
   -4.5810   14.9980    0.1070 C   0  0  0  0  0  0  0  0  0  0  0  0
   -3.3700   14.9940   -0.5940 C   0  0  0  0  0  0  0  0  0  0  0  0
   -5.8260   14.8190   -0.5490 C   0  0  0  0  0  0  0  0  0  0  0  0
   -7.2310   14.7590    0.1200 C   0  0  0  0  0  0  0  0  0  0  0  0
   -3.3600   14.8190   -1.9780 C   0  0  0  0  0  0  0  0  0  0  0  0
   -5.7710   14.6680   -1.9560 C   0  0  0  0  0  0  0  0  0  0  0  0
   -2.0920   14.7830   -2.7510 C   0  0  0  0  0  0  0  0  0  0  0  0
   -7.2840   14.1430    1.5440 C   0  0  0  0  0  0  0  0  0  0  0  0
   -4.5570   14.6670   -2.6550 C   0  0  0  0  0  0  0  0  0  0  0  0
   -0.9940   14.6150   -1.9830 O   0  0  0  0  0  0  0  0  0  0  0  0
   -2.0540   14.8830   -3.9640 O   0  0  0  0  0  0  0  0  0  0  0  0
   -7.0180   15.0440    2.6130 O   0  0  0  0  0  0  0  0  0  0  0  0
  1  2  1  0
  2  3  2  0
  2  4  1  0
  4  5  1  0
  3  6  1  0
  4  7  2  0
  6  8  1  0
  5  9  1  0
  6 10  2  0
  7 10  1  0
  8 11  1  0
  8 12  2  0
  9 13  1  0
M  END
