mac-x0572-mac-x0345
     RDKit          3D

 15 16  0  0  0  0  0  0  0  0999 V2000
   -8.4130   14.5000    3.0780 C   0  0  0  0  0  0  0  0  0  0  0  0
   -7.6560   14.6190    1.7800 C   0  0  0  0  0  0  0  0  0  0  0  0
   -6.3430   14.8680    1.9540 N   0  0  0  0  0  0  0  0  0  0  0  0
   -8.2290   14.4990    0.5750 C   0  0  0  0  0  0  0  0  0  0  0  0
   -9.5760   14.2520    0.4030 O   0  0  0  0  0  0  0  0  0  0  0  0
   -7.3730   14.6320   -0.6430 C   0  0  0  0  0  0  0  0  0  0  0  0
   -5.5370   14.8170    0.9490 C   0  0  0  0  0  0  0  0  0  0  0  0
   -7.9090   14.8530   -1.7250 O   0  0  0  0  0  0  0  0  0  0  0  0
   -5.8930   14.4540   -0.4570 C   0  0  2  0  0  0  0  0  0  0  0  0
   -4.1770   15.1180    1.2690 C   0  0  0  0  0  0  0  0  0  0  0  0
   -4.0440   15.0590    3.0630 Br  0  0  0  0  0  0  0  0  0  0  0  0
   -3.2840   15.3800    0.3220 C   0  0  0  0  0  0  0  0  0  0  0  0
   -4.9030   15.0150   -1.4900 C   0  0  0  0  0  0  0  0  0  0  0  0
   -5.2620   15.0890   -2.8290 N   0  0  0  0  0  0  0  0  0  0  0  0
   -3.6850   15.4120   -1.0730 C   0  0  0  0  0  0  0  0  0  0  0  0
  1  2  1  0
  2  3  1  0
  2  4  2  0
  4  5  1  0
  4  6  1  0
  3  7  2  0
  6  8  2  0
  9  6  1  6
  7  9  1  0
  7 10  1  0
 10 11  1  0
 10 12  2  0
  9 13  1  0
 13 14  1  0
 12 15  1  0
 13 15  2  0
M  END
