mac-x0439-diamond-x0910_0_A
     RDKit          3D

 20 22  0  0  0  0  0  0  0  0999 V2000
   -3.2000   15.7040   -5.4350 Cl  0  0  0  0  0  0  0  0  0  0  0  0
   -1.8550   16.7720   -5.3610 C   0  0  0  0  0  0  0  0  0  0  0  0
   -0.9060   16.6610   -4.2270 C   0  0  1  0  0  0  0  0  0  0  0  0
   -1.6510   17.7200   -6.2900 C   0  0  0  0  0  0  0  0  0  0  0  0
   -0.4410   15.4490   -3.5000 C   0  0  0  0  0  0  0  0  0  0  0  0
    0.4570   17.1470   -4.6300 C   0  0  0  0  0  0  0  0  0  0  0  0
   -0.4910   18.5970   -6.2480 C   0  0  0  0  0  0  0  0  0  0  0  0
    0.9030   15.4490   -3.4680 C   0  0  0  0  0  0  0  0  0  0  0  0
    1.4450   16.4650   -4.1830 N   0  0  0  0  0  0  0  0  0  0  0  0
    0.5710   18.3480   -5.4610 C   0  0  0  0  0  0  0  0  0  0  0  0
    1.7410   14.4770   -2.7210 C   0  0  0  0  0  0  0  0  0  0  0  0
    3.0400   14.6110   -2.9390 O   0  0  0  0  0  0  0  0  0  0  0  0
    1.5200   13.5860   -1.9200 N   0  0  0  0  0  0  0  0  0  0  0  0
    0.1730   13.3230   -1.5860 C   0  0  0  0  0  0  0  0  0  0  0  0
   -0.5650   14.1520   -0.6110 N   0  0  0  0  0  0  0  0  0  0  0  0
   -1.7040   14.9200   -0.7680 C   0  0  0  0  0  0  0  0  0  0  0  0
   -0.2460   14.2930    0.7040 C   0  0  0  0  0  0  0  0  0  0  0  0
   -2.3760   15.0560   -1.9240 N   0  0  0  0  0  0  0  0  0  0  0  0
   -2.0160   15.4770    0.3770 N   0  0  0  0  0  0  0  0  0  0  0  0
   -1.0960   15.0800    1.3040 N   0  0  0  0  0  0  0  0  0  0  0  0
  1  2  1  0
  2  3  1  0
  2  4  2  0
  3  5  1  6
  3  6  1  0
  4  7  1  0
  5  8  2  0
  6  9  2  0
  8  9  1  0
  6 10  1  0
  7 10  2  0
  8 11  1  0
 11 12  1  0
 11 13  2  3
 13 14  1  0
 14 15  1  0
 15 16  1  0
 15 17  1  0
 16 18  1  0
 16 19  2  0
 17 20  2  0
 19 20  1  0
M  END
