mac-x0283-diamond-x0685_1_A
     RDKit          3D

 25 27  0  0  0  0  0  0  0  0999 V2000
   -6.7430   14.5550    2.3530 N   0  0  0  0  0  0  0  0  0  0  0  0
   -6.5980   14.7320    1.0350 C   0  0  0  0  0  0  0  0  0  0  0  0
   -7.6390   14.8970    0.2160 N   0  0  0  0  0  0  0  0  0  0  0  0
   -5.3500   14.7770    0.3370 C   0  0  0  0  0  0  0  0  0  0  0  0
   -7.0990   15.0630   -1.0430 O   0  0  0  0  0  0  0  0  0  0  0  0
   -5.7460   14.9930   -0.9720 C   0  0  0  0  0  0  0  0  0  0  0  0
   -3.9610   14.6700    0.6130 C   0  0  0  0  0  0  0  0  0  0  0  0
   -4.8740   15.1170   -2.0440 C   0  0  0  0  0  0  0  0  0  0  0  0
   -3.0330   14.7790   -0.4620 C   0  0  0  0  0  0  0  0  0  0  0  0
   -1.5340   14.6460   -0.2470 C   0  0  0  0  0  0  0  0  0  0  0  0
   -3.5150   15.0050   -1.7620 C   0  0  0  0  0  0  0  0  0  0  0  0
   -0.9810   13.2880   -0.6690 C   0  0  0  0  0  0  0  0  0  0  0  0
    0.1050   13.4430   -1.5960 O   0  0  0  0  0  0  0  0  0  0  0  0
    0.5940   12.2920   -2.6360 S   0  0  0  0  0  0  0  0  0  0  0  0
   -0.0750   12.6480   -4.2640 C   0  0  0  0  0  0  0  0  0  0  0  0
    2.1810   12.3590   -2.8420 O   0  0  0  0  0  0  0  0  0  0  0  0
    0.1510   10.7960   -2.2120 O   0  0  0  0  0  0  0  0  0  0  0  0
   -1.4520   12.0280   -4.4780 C   0  0  0  0  0  0  0  0  0  0  0  0
   -1.3990   10.6190   -4.8910 N   0  0  0  0  0  0  0  0  0  0  0  0
   -0.7400   10.3580   -6.1750 C   0  0  0  0  0  0  0  0  0  0  0  0
   -0.5310    8.8560   -6.4320 C   0  0  0  0  0  0  0  0  0  0  0  0
   -1.6000   10.9700   -7.2990 C   0  0  0  0  0  0  0  0  0  0  0  0
    0.1150    8.6270   -7.7920 C   0  0  0  0  0  0  0  0  0  0  0  0
   -1.0140   10.6980   -8.6850 C   0  0  0  0  0  0  0  0  0  0  0  0
   -0.7410    9.2100   -8.9110 C   0  0  0  0  0  0  0  0  0  0  0  0
  1  2  1  0
  2  3  2  0
  2  4  1  0
  3  5  1  0
  4  6  2  0
  5  6  1  0
  4  7  1  0
  6  8  1  0
  7  9  2  0
  9 10  1  0
  8 11  2  0
  9 11  1  0
 10 12  1  0
 12 13  1  0
 14 13  1  0
 14 15  1  0
 14 16  1  0
 14 17  1  0
 15 18  1  0
 18 19  1  0
 19 20  1  0
 20 21  1  0
 20 22  1  0
 21 23  1  0
 22 24  1  0
 23 25  1  0
 24 25  1  0
M  END
