mac-x0379-mac-x0302
     RDKit          3D

 21 22  0  0  0  0  0  0  0  0999 V2000
   -4.9330   12.7400    0.3390 C   0  0  0  0  0  0  0  0  0  0  0  0
   -4.1190   13.1450   -0.8390 C   0  0  0  0  0  0  0  0  0  0  0  0
   -4.5780   13.2040   -2.0740 N   0  0  0  0  0  0  0  0  0  0  0  0
   -2.4660   13.5770   -0.6420 S   0  0  0  0  0  0  0  0  0  0  0  0
   -3.5780   13.6320   -2.9200 C   0  0  0  0  0  0  0  0  0  0  0  0
   -2.3560   13.8990   -2.3320 C   0  0  0  0  0  0  0  0  0  0  0  0
   -1.1230   14.4260   -2.9770 C   0  0  2  0  0  0  0  0  0  0  0  0
   -1.1180   14.2340   -4.3880 O   0  0  0  0  0  0  0  0  0  0  0  0
    0.2470   13.9850   -2.3790 C   0  0  0  0  0  0  0  0  0  0  0  0
   -1.3930   15.7810   -2.7070 N   0  0  0  0  0  0  0  0  0  0  0  0
    1.2950   14.2430   -3.2090 O   0  0  0  0  0  0  0  0  0  0  0  0
    0.4450   13.4550   -1.3010 O   0  0  0  0  0  0  0  0  0  0  0  0
   -2.7450   16.0130   -2.7050 C   0  0  0  0  0  0  0  0  0  0  0  0
   -3.3390   16.3420   -3.7150 O   0  0  0  0  0  0  0  0  0  0  0  0
   -3.5230   15.7900   -1.4220 C   0  0  0  0  0  0  0  0  0  0  0  0
   -4.9080   15.5520   -1.5280 C   0  0  0  0  0  0  0  0  0  0  0  0
   -2.9280   15.8060   -0.1450 C   0  0  0  0  0  0  0  0  0  0  0  0
   -5.6640   15.3300   -0.3840 C   0  0  0  0  0  0  0  0  0  0  0  0
   -3.7070   15.5750    0.9960 C   0  0  0  0  0  0  0  0  0  0  0  0
   -7.0070   15.1000   -0.4680 O   0  0  0  0  0  0  0  0  0  0  0  0
   -5.0710   15.3360    0.8750 C   0  0  0  0  0  0  0  0  0  0  0  0
  1  2  1  0
  2  3  2  0
  2  4  1  0
  3  5  1  0
  4  6  1  0
  5  6  2  0
  6  7  1  0
  7  8  1  6
  7  9  1  0
  7 10  1  0
  9 11  1  0
  9 12  2  0
 10 13  1  0
 13 14  2  0
 13 15  1  0
 15 16  2  0
 15 17  1  0
 16 18  1  0
 17 19  2  0
 18 20  1  0
 18 21  2  0
 19 21  1  0
M  END
