mac-x0398-diamond-x1012_0_A
     RDKit          3D

 23 24  0  0  0  0  0  0  0  0999 V2000
   -6.3060   14.9050    2.1390 N   0  0  0  0  0  0  0  0  0  0  0  0
   -5.5540   14.9660    0.9630 C   0  0  0  0  0  0  0  0  0  0  0  0
   -4.1580   14.9160    0.9880 C   0  0  0  0  0  0  0  0  0  0  0  0
   -6.2000   15.0750   -0.2640 C   0  0  0  0  0  0  0  0  0  0  0  0
   -5.4800   15.1340   -1.4500 C   0  0  0  0  0  0  0  0  0  0  0  0
   -3.4270   14.9740   -0.2040 C   0  0  0  0  0  0  0  0  0  0  0  0
   -6.2440   15.2380   -2.5740 O   0  0  0  0  0  0  0  0  0  0  0  0
   -4.0870   15.0770   -1.4410 C   0  0  0  0  0  0  0  0  0  0  0  0
   -3.2670   15.1240   -2.6820 C   0  0  0  0  0  0  0  0  0  0  0  0
   -3.7480   15.5130   -3.7320 O   0  0  0  0  0  0  0  0  0  0  0  0
   -1.9790   14.6910   -2.5340 O   0  0  0  0  0  0  0  0  0  0  0  0
   -1.4610   13.9180   -3.6650 C   0  0  1  0  0  0  0  0  0  0  0  0
   -1.5840   14.7910   -4.9260 C   0  0  0  0  0  0  0  0  0  0  0  0
    0.0240   13.5080   -3.5080 C   0  0  2  0  0  0  0  0  0  0  0  0
    0.2360   12.5490   -2.3480 C   0  0  0  0  0  0  0  0  0  0  0  0
    0.9380   14.7530   -3.4520 C   0  0  0  0  0  0  0  0  0  0  0  0
   -0.6870   15.9550   -4.8720 N   0  0  0  0  0  0  0  0  0  0  0  0
   -1.2190   17.2250   -4.7830 C   0  0  0  0  0  0  0  0  0  0  0  0
    0.1940   11.2560   -2.7220 O   0  0  0  0  0  0  0  0  0  0  0  0
    0.4300   12.8290   -1.1760 O   0  0  0  0  0  0  0  0  0  0  0  0
    0.7370   15.6560   -4.6790 C   0  0  0  0  0  0  0  0  0  0  0  0
   -0.3340   18.2410   -4.7290 N   0  0  0  0  0  0  0  0  0  0  0  0
   -2.4120   17.4830   -4.7450 O   0  0  0  0  0  0  0  0  0  0  0  0
  1  2  1  0
  2  3  2  0
  2  4  1  0
  4  5  2  0
  3  6  1  0
  5  7  1  0
  5  8  1  0
  6  8  2  0
  8  9  1  0
  9 10  2  0
  9 11  1  0
 12 11  1  1
 12 13  1  0
 12 14  1  0
 14 15  1  1
 14 16  1  0
 13 17  1  0
 17 18  1  0
 15 19  1  0
 15 20  2  0
 16 21  1  0
 17 21  1  0
 18 22  1  0
 18 23  2  0
M  END
