mac-x0333-mac-x0328
     RDKit          3D

 13 14  0  0  0  0  0  0  0  0999 V2000
   -2.3600   14.9200   -2.5120 C   0  0  0  0  0  0  0  0  0  0  0  0
   -2.6860   15.0400   -3.8100 O   0  0  0  0  0  0  0  0  0  0  0  0
   -1.1900   14.7800   -2.1590 O   0  0  0  0  0  0  0  0  0  0  0  0
   -3.4600   14.9470   -1.4850 C   0  0  0  0  0  0  0  0  0  0  0  0
   -4.8660   14.9600   -1.6890 C   0  0  0  0  0  0  0  0  0  0  0  0
   -2.9910   14.9520   -0.1470 C   0  0  0  0  0  0  0  0  0  0  0  0
   -5.5080   14.9650   -2.8770 O   0  0  0  0  0  0  0  0  0  0  0  0
   -5.6860   14.9610   -0.6010 C   0  0  0  0  0  0  0  0  0  0  0  0
   -3.8660   14.9590    0.9430 C   0  0  0  0  0  0  0  0  0  0  0  0
   -5.2090   14.9580    0.6770 C   0  0  0  0  0  0  0  0  0  0  0  0
   -7.0460   14.9600   -0.6510 O   0  0  0  0  0  0  0  0  0  0  0  0
   -6.2220   14.9500    1.5770 O   0  0  0  0  0  0  0  0  0  0  0  0
   -7.3130   14.5800    0.7140 C   0  0  0  0  0  0  0  0  0  0  0  0
  1  2  1  0
  1  3  2  0
  1  4  1  0
  4  5  2  0
  4  6  1  0
  5  7  1  0
  5  8  1  0
  6  9  2  0
  8 10  2  0
  9 10  1  0
  8 11  1  0
 10 12  1  0
 11 13  1  0
 12 13  1  0
M  END
