mac-x0522-diamond-x0628_0_A
     RDKit          3D

 28 30  0  0  0  0  0  0  0  0999 V2000
    1.7860    9.2370  -11.0940 O   0  0  0  0  0  0  0  0  0  0  0  0
    2.8510    8.8080  -11.5340 C   0  0  0  0  0  0  0  0  0  0  0  0
    3.4270    7.7170  -10.9090 N   0  0  0  0  0  0  0  0  0  0  0  0
    3.3970    9.5380  -12.6970 C   0  0  0  0  0  0  0  0  0  0  0  0
    2.8410    7.0640   -9.8620 C   0  0  0  0  0  0  0  0  0  0  0  0
    4.4610    9.0080  -13.4210 C   0  0  0  0  0  0  0  0  0  0  0  0
    2.8360   10.7730  -13.0650 C   0  0  0  0  0  0  0  0  0  0  0  0
    3.2360    5.9300   -9.3070 N   0  0  0  0  0  0  0  0  0  0  0  0
    1.4660    7.7600   -9.2000 S   0  0  0  0  0  0  0  0  0  0  0  0
    4.9650    9.7120  -14.5150 C   0  0  0  0  0  0  0  0  0  0  0  0
    3.3460   11.4690  -14.1560 C   0  0  0  0  0  0  0  0  0  0  0  0
    1.3220    6.5020   -8.0820 C   0  0  0  0  0  0  0  0  0  0  0  0
    2.3530    5.5970   -8.2680 C   0  0  0  0  0  0  0  0  0  0  0  0
    4.4090   10.9400  -14.8800 C   0  0  0  0  0  0  0  0  0  0  0  0
    0.1620    6.6450   -7.1760 C   0  0  0  0  0  0  0  0  0  0  0  0
   -0.2140    8.1260   -7.3780 C   0  0  0  0  0  0  0  0  0  0  0  0
   -1.3750    8.6470   -6.5650 C   0  0  0  0  0  0  0  0  0  0  0  0
   -1.1480   10.0060   -6.0100 C   0  0  0  0  0  0  0  0  0  0  0  0
   -2.0740   10.5700   -5.1910 N   0  0  0  0  0  0  0  0  0  0  0  0
   -0.0660   10.7710   -6.2430 N   0  0  0  0  0  0  0  0  0  0  0  0
   -0.3450   11.8700   -5.5050 N   0  0  0  0  0  0  0  0  0  0  0  0
   -1.5590   11.7350   -4.8810 C   0  0  0  0  0  0  0  0  0  0  0  0
   -2.1770   12.7480   -3.9990 C   0  0  0  0  0  0  0  0  0  0  0  0
    0.5940   12.9810   -5.4630 C   0  0  0  0  0  0  0  0  0  0  0  0
    1.6010   12.9090   -4.3060 C   0  0  0  0  0  0  0  0  0  0  0  0
    1.0280   12.2480   -3.0750 C   0  0  0  0  0  0  0  0  0  0  0  0
    0.5180   11.1410   -3.0330 O   0  0  0  0  0  0  0  0  0  0  0  0
    1.1380   13.0160   -1.9700 O   0  0  0  0  0  0  0  0  0  0  0  0
  1  2  2  0
  2  3  1  0
  2  4  1  0
  3  5  1  0
  4  6  2  0
  4  7  1  0
  5  8  2  0
  5  9  1  0
  6 10  1  0
  7 11  2  0
  9 12  1  0
  8 13  1  0
 12 13  2  0
 10 14  2  0
 11 14  1  0
 12 15  1  0
 15 16  1  0
 16 17  1  0
 17 18  1  0
 18 19  1  0
 18 20  2  0
 20 21  1  0
 19 22  2  0
 21 22  1  0
 22 23  1  0
 21 24  1  0
 24 25  1  0
 25 26  1  0
 26 27  2  0
 26 28  1  0
M  END
