mac-x0283-mac-x0115
     RDKit          3D

 25 28  0  0  0  0  0  0  0  0999 V2000
   -6.6490   14.8410    2.3490 N   0  0  0  0  0  0  0  0  0  0  0  0
   -6.7270   14.0740    1.1440 C   0  0  1  0  0  0  0  0  0  0  0  0
   -7.6190   14.7780    0.2550 N   0  0  0  0  0  0  0  0  0  0  0  0
   -5.4130   13.9360    0.3910 C   0  0  1  0  0  0  0  0  0  0  0  0
   -7.2450   14.2420   -1.0550 O   0  0  0  0  0  0  0  0  0  0  0  0
   -5.8190   14.1720   -1.0680 C   0  0  1  0  0  0  0  0  0  0  0  0
   -4.2140   14.7050    0.9270 C   0  0  0  0  0  0  0  0  0  0  0  0
   -5.2510   15.4060   -1.7000 C   0  0  0  0  0  0  0  0  0  0  0  0
   -3.2110   15.2350   -0.0940 C   0  0  2  0  0  0  0  0  0  0  0  0
   -3.7560   15.5700   -1.4850 C   0  0  1  0  0  0  0  0  0  0  0  0
   -1.9310   14.4140   -0.3450 C   0  0  2  0  0  0  0  0  0  0  0  0
   -0.7380   14.7420    0.4980 C   0  0  0  0  0  0  0  0  0  0  0  0
   -1.6200   14.3610   -1.8850 C   0  0  1  0  0  0  0  0  0  0  0  0
   -2.8810   14.9140   -2.5650 C   0  0  0  0  0  0  0  0  0  0  0  0
   -0.8690   14.9510    1.7020 O   0  0  0  0  0  0  0  0  0  0  0  0
   -0.2780   14.8410   -2.3300 N   0  0  0  0  0  0  0  0  0  0  0  0
    0.4900   14.7590   -0.1110 N   0  0  0  0  0  0  0  0  0  0  0  0
    0.0350   14.5970   -3.7710 C   0  0  0  0  0  0  0  0  0  0  0  0
    0.7740   14.6060   -1.4430 C   0  0  0  0  0  0  0  0  0  0  0  0
    0.4880   15.8490   -4.5430 C   0  0  0  0  0  0  0  0  0  0  0  0
    2.3430   14.1450   -1.8240 S   0  0  0  0  0  0  0  0  0  0  0  0
   -0.6470   16.4290   -5.1870 O   0  0  0  0  0  0  0  0  0  0  0  0
   -0.4400   17.7050   -5.7980 C   0  0  0  0  0  0  0  0  0  0  0  0
   -1.4410   18.7250   -5.2830 C   0  0  0  0  0  0  0  0  0  0  0  0
    0.9940   18.1230   -5.5150 C   0  0  0  0  0  0  0  0  0  0  0  0
  2  1  1  1
  2  3  1  0
  2  4  1  0
  3  5  1  0
  4  6  1  0
  5  6  1  0
  4  7  1  1
  6  8  1  1
  9  7  1  1
 10  8  1  1
  9 10  1  0
  9 11  1  0
 11 12  1  1
 11 13  1  0
 10 14  1  0
 13 14  1  6
 12 15  2  0
 13 16  1  0
 12 17  1  0
 16 18  1  0
 16 19  1  0
 17 19  1  0
 18 20  1  0
 19 21  2  0
 20 22  1  0
 22 23  1  0
 23 24  1  0
 23 25  1  0
M  END
