mac-x0212-diamond-x0844_0_A
     RDKit          3D

 14 14  0  0  0  0  0  0  0  0999 V2000
   -6.4720   12.7340    1.4110 C   0  0  0  0  0  0  0  0  0  0  0  0
   -6.9090   14.4230    1.0590 S   0  0  0  0  0  0  0  0  0  0  0  0
   -7.7510   14.9000    2.1350 O   0  0  0  0  0  0  0  0  0  0  0  0
   -7.3250   14.5290   -0.3230 O   0  0  0  0  0  0  0  0  0  0  0  0
   -5.3900   15.1550    1.2940 N   0  0  0  0  0  0  0  0  0  0  0  0
   -4.4950   15.0170    0.1880 C   0  0  0  0  0  0  0  0  0  0  0  0
   -3.2560   14.4210    0.4140 C   0  0  0  0  0  0  0  0  0  0  0  0
   -4.8480   15.4570   -1.0970 C   0  0  0  0  0  0  0  0  0  0  0  0
   -2.3600   14.2510   -0.6420 C   0  0  0  0  0  0  0  0  0  0  0  0
   -3.9540   15.2870   -2.1590 C   0  0  0  0  0  0  0  0  0  0  0  0
   -2.7100   14.6800   -1.9300 C   0  0  0  0  0  0  0  0  0  0  0  0
   -1.7360   14.4690   -3.0270 C   0  0  0  0  0  0  0  0  0  0  0  0
   -0.5900   14.1200   -2.8340 O   0  0  0  0  0  0  0  0  0  0  0  0
   -2.2570   14.6900   -4.2500 O   0  0  0  0  0  0  0  0  0  0  0  0
  1  2  1  0
  2  3  2  0
  2  4  2  0
  2  5  1  0
  5  6  1  0
  6  7  2  0
  6  8  1  0
  7  9  1  0
  8 10  2  0
  9 11  2  0
 10 11  1  0
 11 12  1  0
 12 13  2  0
 12 14  1  0
M  END
