mac-x0212-mac-x0371
     RDKit          3D

 25 26  0  0  0  0  0  0  0  0999 V2000
   -6.5210   12.7770    1.4840 C   0  0  0  0  0  0  0  0  0  0  0  0
   -7.0200   14.4440    1.0970 S   0  0  0  0  0  0  0  0  0  0  0  0
   -7.8070   14.9520    2.2010 O   0  0  0  0  0  0  0  0  0  0  0  0
   -7.5240   14.5000   -0.2580 O   0  0  0  0  0  0  0  0  0  0  0  0
   -5.5200   15.2240    1.1910 N   0  0  0  0  0  0  0  0  0  0  0  0
   -4.6570   14.9870    0.1240 C   0  0  0  0  0  0  0  0  0  0  0  0
   -3.5030   14.3150    0.4320 C   0  0  0  0  0  0  0  0  0  0  0  0
   -4.9570   15.3970   -1.1840 C   0  0  0  0  0  0  0  0  0  0  0  0
   -2.6220   14.0170   -0.5710 C   0  0  0  0  0  0  0  0  0  0  0  0
   -4.0590   15.0910   -2.2090 C   0  0  0  0  0  0  0  0  0  0  0  0
   -2.8960   14.3900   -1.8840 C   0  0  0  0  0  0  0  0  0  0  0  0
   -1.8970   13.9840   -2.8590 C   0  0  0  0  0  0  0  0  0  0  0  0
   -1.0020   13.2660   -2.4810 O   0  0  0  0  0  0  0  0  0  0  0  0
   -2.0000   14.4590   -4.1250 O   0  0  0  0  0  0  0  0  0  0  0  0
   -0.6570   14.7120   -4.2370 C   0  0  0  0  0  0  0  0  0  0  0  0
    0.2600   13.6230   -4.1700 C   0  0  0  0  0  0  0  0  0  0  0  0
   -0.2910   16.0410   -4.3770 C   0  0  0  0  0  0  0  0  0  0  0  0
   -0.1710   12.1630   -4.0270 C   0  0  0  0  0  0  0  0  0  0  0  0
    1.0410   16.3410   -4.4450 C   0  0  0  0  0  0  0  0  0  0  0  0
    1.5920   13.9810   -4.2430 C   0  0  0  0  0  0  0  0  0  0  0  0
    2.8900   12.8580   -4.1780 Cl  0  0  0  0  0  0  0  0  0  0  0  0
    0.1150   11.4160   -2.7120 C   0  0  0  0  0  0  0  0  0  0  0  0
    1.9490   15.2980   -4.3700 C   0  0  0  0  0  0  0  0  0  0  0  0
    0.3760   12.1990   -1.6270 O   0  0  0  0  0  0  0  0  0  0  0  0
    0.1260   10.2010   -2.5610 O   0  0  0  0  0  0  0  0  0  0  0  0
  1  2  1  0
  2  3  2  0
  2  4  2  0
  2  5  1  0
  5  6  1  0
  6  7  2  0
  6  8  1  0
  7  9  1  0
  8 10  2  0
  9 11  2  0
 10 11  1  0
 11 12  1  0
 12 13  2  0
 12 14  1  0
 14 15  1  0
 15 16  2  0
 15 17  1  0
 16 18  1  0
 17 19  2  0
 16 20  1  0
 20 21  1  0
 18 22  1  0
 19 23  1  0
 20 23  2  0
 22 24  1  0
 22 25  2  0
M  END
