mac-x0412-diamond-x0727_0_A
     RDKit          3D

 27 29  0  0  0  0  0  0  0  0999 V2000
   -7.7160   14.3350   -0.7440 O   0  0  0  0  0  0  0  0  0  0  0  0
   -6.8610   14.8170   -0.0180 C   0  0  0  0  0  0  0  0  0  0  0  0
   -7.0310   14.8160    1.3600 N   0  0  0  0  0  0  0  0  0  0  0  0
   -5.5680   15.4830   -0.5870 C   0  0  1  0  0  0  0  0  0  0  0  0
   -4.3980   15.2510    0.3540 C   0  0  0  0  0  0  0  0  0  0  0  0
   -5.9810   14.9070    2.1020 C   0  0  0  0  0  0  0  0  0  0  0  0
   -5.2380   15.1090   -2.0090 C   0  0  0  0  0  0  0  0  0  0  0  0
   -4.5830   14.9800    1.6470 C   0  0  0  0  0  0  0  0  0  0  0  0
   -3.0650   15.3180   -0.1980 C   0  0  0  0  0  0  0  0  0  0  0  0
   -3.9670   14.9730   -2.4300 C   0  0  0  0  0  0  0  0  0  0  0  0
   -2.8460   15.1800   -1.5140 C   0  0  0  0  0  0  0  0  0  0  0  0
   -1.4450   15.2210   -2.0780 C   0  0  0  0  0  0  0  0  0  0  0  0
   -0.6840   13.9110   -1.7700 C   0  0  0  0  0  0  0  0  0  0  0  0
    0.8270   14.0250   -1.9820 C   0  0  0  0  0  0  0  0  0  0  0  0
    1.4110   12.7510   -2.3320 O   0  0  0  0  0  0  0  0  0  0  0  0
    0.7200   11.9240   -3.1670 C   0  0  0  0  0  0  0  0  0  0  0  0
    0.8320   12.3630   -4.6440 C   0  0  1  0  0  0  0  0  0  0  0  0
    0.0960   10.9390   -2.7830 O   0  0  0  0  0  0  0  0  0  0  0  0
    0.1510   11.4770   -5.5980 N   0  0  0  0  0  0  0  0  0  0  0  0
    0.5430   13.8280   -4.9610 C   0  0  0  0  0  0  0  0  0  0  0  0
    0.6540   11.0790   -6.7970 C   0  0  0  0  0  0  0  0  0  0  0  0
    1.6010   11.7120   -7.2040 O   0  0  0  0  0  0  0  0  0  0  0  0
    0.0830    9.8830   -7.5600 C   0  0  0  0  0  0  0  0  0  0  0  0
   -1.1970   10.2920   -8.2940 C   0  0  0  0  0  0  0  0  0  0  0  0
   -0.3160    8.7110   -6.6360 C   0  0  0  0  0  0  0  0  0  0  0  0
   -2.1850    9.1550   -8.0640 C   0  0  0  0  0  0  0  0  0  0  0  0
   -1.8300    8.6150   -6.6940 C   0  0  0  0  0  0  0  0  0  0  0  0
  1  2  2  0
  2  3  1  0
  2  4  1  0
  4  5  1  0
  3  6  2  0
  4  7  1  6
  5  8  2  0
  6  8  1  0
  5  9  1  0
  7 10  2  0
  9 11  2  0
 10 11  1  0
 11 12  1  0
 12 13  1  0
 13 14  1  0
 14 15  1  0
 15 16  1  0
 16 17  1  0
 16 18  2  0
 17 19  1  0
 17 20  1  1
 19 21  1  0
 21 22  2  0
 21 23  1  0
 23 24  1  0
 23 25  1  0
 24 26  1  0
 25 27  1  0
 26 27  1  0
M  END
