mac-x0338-diamond-x0844_0_A
     RDKit          3D

 10 10  0  0  0  0  0  0  0  0999 V2000
   -4.1860   15.4860    2.0870 N   0  0  0  0  0  0  0  0  0  0  0  0
   -5.1970   14.9620    1.3370 C   0  0  0  0  0  0  0  0  0  0  0  0
   -6.3340   14.8850    1.7810 O   0  0  0  0  0  0  0  0  0  0  0  0
   -4.8190   14.4880   -0.0550 C   0  0  2  0  0  0  0  0  0  0  0  0
   -3.4620   14.9710   -0.4630 N   0  0  0  0  0  0  0  0  0  0  0  0
   -5.9110   14.8780   -1.0600 C   0  0  0  0  0  0  0  0  0  0  0  0
   -7.1030   14.9970   -0.7510 O   0  0  0  0  0  0  0  0  0  0  0  0
   -3.1970   15.0630   -1.8070 C   0  0  0  0  0  0  0  0  0  0  0  0
   -5.4870   15.0890   -2.3610 N   0  0  0  0  0  0  0  0  0  0  0  0
   -4.1640   15.1210   -2.7310 C   0  0  0  0  0  0  0  0  0  0  0  0
  1  2  1  0
  2  3  2  0
  4  2  1  1
  4  5  1  0
  4  6  1  0
  6  7  2  0
  5  8  1  0
  6  9  1  0
  8 10  2  0
  9 10  1  0
M  END
