mac-x0284-mac-x0385
     RDKit          3D

 19 20  0  0  0  0  0  0  0  0999 V2000
   -4.4340   15.2760    0.2300 C   0  0  0  0  0  0  0  0  0  0  0  0
   -4.3950   15.1490   -1.2750 C   0  0  0  0  0  0  0  0  0  0  0  0
   -5.4390   15.0300   -2.1800 C   0  0  0  0  0  0  0  0  0  0  0  0
   -3.0880   14.6820    0.1470 C   0  0  0  0  0  0  0  0  0  0  0  0
   -3.0670   15.1240   -1.7630 C   0  0  0  0  0  0  0  0  0  0  0  0
   -3.0030   13.5160   -0.5910 C   0  0  0  0  0  0  0  0  0  0  0  0
   -2.0360   15.2880    0.6960 N   0  0  0  0  0  0  0  0  0  0  0  0
   -4.1860   12.8210   -1.1860 C   0  0  0  0  0  0  0  0  0  0  0  0
   -2.7410   14.9790   -3.1010 C   0  0  0  0  0  0  0  0  0  0  0  0
   -5.1240   14.8810   -3.5440 C   0  0  0  0  0  0  0  0  0  0  0  0
   -0.8650   14.7050    0.4270 C   0  0  0  0  0  0  0  0  0  0  0  0
   -1.7440   13.0290   -0.7730 C   0  0  0  0  0  0  0  0  0  0  0  0
   -1.3100   14.9520   -3.5410 C   0  0  0  0  0  0  0  0  0  0  0  0
    0.3270   15.3400    0.9330 C   0  0  0  0  0  0  0  0  0  0  0  0
   -3.7910   14.8570   -4.0020 C   0  0  0  0  0  0  0  0  0  0  0  0
   -0.6570   13.6020   -0.2880 N   0  0  0  0  0  0  0  0  0  0  0  0
   -3.5900   14.7080   -5.3500 O   0  0  0  0  0  0  0  0  0  0  0  0
   -0.3930   14.8780   -2.7270 O   0  0  0  0  0  0  0  0  0  0  0  0
   -1.0860   15.0120   -4.8670 O   0  0  0  0  0  0  0  0  0  0  0  0
  1  2  1  0
  2  3  2  0
  1  4  1  0
  2  5  1  0
  4  6  2  0
  4  7  1  0
  6  8  1  0
  5  9  2  0
  3 10  1  0
  7 11  2  0
  6 12  1  0
  9 13  1  0
 11 14  1  0
  9 15  1  0
 10 15  2  0
 11 16  1  0
 12 16  2  0
 15 17  1  0
 13 18  2  0
 13 19  1  0
M  END
