mac-x0436-diamond-x0962_3_A
     RDKit          3D

 18 19  0  0  0  0  0  0  0  0999 V2000
    0.7400   11.2090   -2.9040 O   0  0  0  0  0  0  0  0  0  0  0  0
    1.2180   12.4680   -2.9020 C   0  0  0  0  0  0  0  0  0  0  0  0
    1.3960   13.0440   -1.8490 O   0  0  0  0  0  0  0  0  0  0  0  0
    1.4650   13.0120   -4.2880 C   0  0  0  0  0  0  0  0  0  0  0  0
    0.1520   13.2940   -5.0100 C   0  0  0  0  0  0  0  0  0  0  0  0
   -0.5510   12.0250   -5.4380 C   0  0  0  0  0  0  0  0  0  0  0  0
   -1.7510   11.5610   -4.6120 C   0  0  0  0  0  0  0  0  0  0  0  0
   -0.1340   11.3700   -6.4640 N   0  0  0  0  0  0  0  0  0  0  0  0
   -2.2570   12.2850   -3.7690 O   0  0  0  0  0  0  0  0  0  0  0  0
   -2.2040   10.2900   -4.8910 N   0  0  0  0  0  0  0  0  0  0  0  0
   -0.7820   10.1870   -6.8230 C   0  0  0  0  0  0  0  0  0  0  0  0
   -1.8070    9.6260   -6.0550 C   0  0  0  0  0  0  0  0  0  0  0  0
   -0.3850    9.5530   -7.9830 C   0  0  0  0  0  0  0  0  0  0  0  0
    0.6450   10.1810   -8.7370 C   0  0  0  0  0  0  0  0  0  0  0  0
   -0.9890    8.3530   -8.3880 C   0  0  0  0  0  0  0  0  0  0  0  0
   -2.4240    8.4330   -6.4390 C   0  0  0  0  0  0  0  0  0  0  0  0
    1.3900   10.7800   -9.3680 N   0  0  0  0  0  0  0  0  0  0  0  0
   -2.0090    7.7920   -7.6120 C   0  0  0  0  0  0  0  0  0  0  0  0
  1  2  1  0
  2  3  2  0
  2  4  1  0
  4  5  1  0
  5  6  1  0
  6  7  1  0
  6  8  2  0
  7  9  2  0
  7 10  1  0
  8 11  1  0
 10 12  1  0
 11 12  2  0
 11 13  1  0
 13 14  1  0
 13 15  2  0
 12 16  1  0
 14 17  3  0
 15 18  1  0
 16 18  2  0
M  END
