mac-x0284-mac-x0375
     RDKit          3D

 23 24  0  0  0  0  0  0  0  0999 V2000
   -4.1090   15.3590    0.7570 C   0  0  0  0  0  0  0  0  0  0  0  0
   -3.5690   15.1680   -0.6270 C   0  0  0  0  0  0  0  0  0  0  0  0
   -4.4150   15.2820   -1.7380 C   0  0  0  0  0  0  0  0  0  0  0  0
   -2.2090   14.8780   -0.8280 C   0  0  0  0  0  0  0  0  0  0  0  0
   -1.6990   14.7200   -2.1260 C   0  0  0  0  0  0  0  0  0  0  0  0
   -3.9130   15.1180   -3.0250 C   0  0  0  0  0  0  0  0  0  0  0  0
   -0.2700   14.4390   -2.3820 C   0  0  0  0  0  0  0  0  0  0  0  0
   -2.5650   14.8420   -3.2170 C   0  0  0  0  0  0  0  0  0  0  0  0
   -2.1480   14.7070   -4.5160 O   0  0  0  0  0  0  0  0  0  0  0  0
    0.5380   13.9900   -1.4950 N   0  0  0  0  0  0  0  0  0  0  0  0
    0.1310   14.7000   -3.6350 O   0  0  0  0  0  0  0  0  0  0  0  0
    1.8990   13.8050   -2.0300 C   0  0  0  0  0  0  0  0  0  0  0  0
    2.1070   12.6080   -2.8000 O   0  0  0  0  0  0  0  0  0  0  0  0
    1.0600   11.9880   -3.4070 C   0  0  0  0  0  0  0  0  0  0  0  0
    0.4490   11.0440   -2.9210 O   0  0  0  0  0  0  0  0  0  0  0  0
    0.7600   12.5940   -4.7800 C   0  0  0  0  0  0  0  0  0  0  0  0
    0.7340   11.6400   -5.8350 O   0  0  0  0  0  0  0  0  0  0  0  0
   -0.3470   10.8130   -6.0090 C   0  0  0  0  0  0  0  0  0  0  0  0
   -0.3730    9.6470   -6.7750 C   0  0  0  0  0  0  0  0  0  0  0  0
   -1.5130   11.2060   -5.3410 C   0  0  0  0  0  0  0  0  0  0  0  0
   -1.5430    8.8850   -6.8680 C   0  0  0  0  0  0  0  0  0  0  0  0
   -2.6820   10.4470   -5.4340 C   0  0  0  0  0  0  0  0  0  0  0  0
   -2.6980    9.2850   -6.1980 C   0  0  0  0  0  0  0  0  0  0  0  0
  1  2  1  0
  2  3  2  0
  2  4  1  0
  4  5  2  0
  3  6  1  0
  5  7  1  0
  5  8  1  0
  6  8  2  0
  8  9  1  0
  7 10  2  3
  7 11  1  0
 10 12  1  0
 12 13  1  0
 13 14  1  0
 14 15  2  0
 14 16  1  0
 16 17  1  0
 17 18  1  0
 18 19  2  0
 18 20  1  0
 19 21  1  0
 20 22  2  0
 21 23  2  0
 22 23  1  0
M  END
