mac-x0138-mac-x0338
     RDKit          3D

 14 16  0  0  0  0  0  0  0  0999 V2000
   -2.0540   15.2500   -3.5790 C   0  0  0  0  0  0  0  0  0  0  0  0
   -2.5470   14.7260   -2.3050 N   0  0  0  0  0  0  0  0  0  0  0  0
   -4.0370   14.9730   -2.0970 C   0  0  0  0  0  0  0  0  0  0  0  0
   -1.8850   15.3180   -1.1500 C   0  0  1  0  0  0  0  0  0  0  0  0
   -4.2150   15.6220   -0.7960 N   0  0  0  0  0  0  0  0  0  0  0  0
   -2.9710   15.6280   -0.1410 C   0  0  1  0  0  0  0  0  0  0  0  0
   -0.8100   14.6070   -0.4800 N   0  0  0  0  0  0  0  0  0  0  0  0
   -5.0840   15.1450    0.2670 C   0  0  0  0  0  0  0  0  0  0  0  0
   -3.0200   14.5140    0.8040 C   0  0  2  0  0  0  0  0  0  0  0  0
   -0.7670   14.9710    0.9240 C   0  0  2  0  0  0  0  0  0  0  0  0
   -4.2620   14.8410    1.3600 N   0  0  0  0  0  0  0  0  0  0  0  0
    0.2480   14.2040    1.5060 N   0  0  0  0  0  0  0  0  0  0  0  0
   -6.2940   15.0120    0.2800 O   0  0  0  0  0  0  0  0  0  0  0  0
   -1.9290   14.6440    1.6840 N   0  0  0  0  0  0  0  0  0  0  0  0
  1  2  1  0
  2  3  1  0
  2  4  1  0
  3  5  1  0
  4  6  1  0
  6  5  1  6
  4  7  1  1
  5  8  1  0
  6  9  1  0
  7 10  1  0
  8 11  1  0
  9 11  1  1
 10 12  1  1
  8 13  2  0
  9 14  1  0
 10 14  1  0
M  END
