mac-x0348-mac-x0567
     RDKit          3D

 26 29  0  0  0  0  0  0  0  0999 V2000
    0.3030   18.7220   -6.1350 C   0  0  0  0  0  0  0  0  0  0  0  0
   -0.0820   17.5050   -5.4750 N   0  0  0  0  0  0  0  0  0  0  0  0
    0.7490   16.7870   -4.6830 C   0  0  0  0  0  0  0  0  0  0  0  0
   -1.3050   16.8930   -5.5370 C   0  0  0  0  0  0  0  0  0  0  0  0
    0.1020   15.6820   -4.2200 C   0  0  0  0  0  0  0  0  0  0  0  0
   -1.2130   15.7350   -4.7580 C   0  0  0  0  0  0  0  0  0  0  0  0
   -2.4840   17.2360   -6.2020 C   0  0  0  0  0  0  0  0  0  0  0  0
    0.7020   14.6500   -3.3260 C   0  0  0  0  0  0  0  0  0  0  0  0
   -2.3250   14.8940   -4.6450 C   0  0  0  0  0  0  0  0  0  0  0  0
   -3.5680   16.3640   -6.0560 C   0  0  0  0  0  0  0  0  0  0  0  0
    0.6550   13.2160   -3.8640 C   0  0  0  0  0  0  0  0  0  0  0  0
   -3.4960   15.2210   -5.3000 C   0  0  0  0  0  0  0  0  0  0  0  0
    0.5120   12.1510   -2.7890 C   0  0  0  0  0  0  0  0  0  0  0  0
    0.5380   12.4050   -1.5430 N   0  0  0  0  0  0  0  0  0  0  0  0
    0.3410   10.8920   -3.2260 O   0  0  0  0  0  0  0  0  0  0  0  0
    0.7200   13.7490   -1.0870 C   0  0  0  0  0  0  0  0  0  0  0  0
    0.1770   13.9080    0.2240 N   0  0  0  0  0  0  0  0  0  0  0  0
   -1.0770   14.3430    0.4880 C   0  0  0  0  0  0  0  0  0  0  0  0
   -1.5280   14.5220    1.7510 N   0  0  0  0  0  0  0  0  0  0  0  0
   -2.1640   14.6950   -0.2920 C   0  0  0  0  0  0  0  0  0  0  0  0
   -2.7950   14.9580    1.8650 N   0  0  0  0  0  0  0  0  0  0  0  0
   -3.2190   15.0810    0.6090 C   0  0  0  0  0  0  0  0  0  0  0  0
   -2.2430   14.6880   -1.6870 C   0  0  0  0  0  0  0  0  0  0  0  0
   -4.4660   15.5060    0.1290 C   0  0  0  0  0  0  0  0  0  0  0  0
   -3.5120   15.1230   -2.1370 C   0  0  0  0  0  0  0  0  0  0  0  0
   -4.5710   15.5130   -1.2750 C   0  0  0  0  0  0  0  0  0  0  0  0
  1  2  1  0
  2  3  1  0
  2  4  1  0
  3  5  2  0
  4  6  2  0
  5  6  1  0
  4  7  1  0
  5  8  1  0
  6  9  1  0
  7 10  2  0
  8 11  1  0
  9 12  2  0
 10 12  1  0
 11 13  1  0
 13 14  2  3
 13 15  1  0
 14 16  1  0
 16 17  1  0
 17 18  1  0
 18 19  1  0
 18 20  2  0
 19 21  1  0
 20 22  1  0
 21 22  2  0
 20 23  1  0
 22 24  1  0
 23 25  2  0
 24 26  2  0
 25 26  1  0
M  END
