mac-x0180-mac-x0255
     RDKit          3D

 26 28  0  0  0  0  0  0  0  0999 V2000
   -7.6110   14.4800    1.0090 C   0  0  0  0  0  0  0  0  0  0  0  0
   -6.6170   14.7790   -0.0960 C   0  0  0  0  0  0  0  0  0  0  0  0
   -6.9480   14.6730   -1.2650 O   0  0  0  0  0  0  0  0  0  0  0  0
   -5.3820   15.1700    0.4000 N   0  0  0  0  0  0  0  0  0  0  0  0
   -4.0920   15.1950   -0.2060 C   0  0  0  0  0  0  0  0  0  0  0  0
   -2.9400   15.1060    0.5630 C   0  0  0  0  0  0  0  0  0  0  0  0
   -3.9420   15.3160   -1.6110 C   0  0  0  0  0  0  0  0  0  0  0  0
   -1.6650   15.1310   -0.0140 C   0  0  0  0  0  0  0  0  0  0  0  0
   -2.6430   15.3440   -2.2090 C   0  0  0  0  0  0  0  0  0  0  0  0
   -1.4820   15.2480   -1.3930 C   0  0  0  0  0  0  0  0  0  0  0  0
   -0.0360   15.2600   -1.8560 C   0  0  0  0  0  0  0  0  0  0  0  0
    0.6720   15.1640   -2.9550 N   0  0  0  0  0  0  0  0  0  0  0  0
    0.6960   15.4110   -0.7670 O   0  0  0  0  0  0  0  0  0  0  0  0
   -0.1900   15.0110   -3.9300 C   0  0  0  0  0  0  0  0  0  0  0  0
   -0.5350   13.7940   -4.4070 C   0  0  0  0  0  0  0  0  0  0  0  0
   -0.7930   16.1500   -4.4840 C   0  0  0  0  0  0  0  0  0  0  0  0
   -0.0310   12.4140   -4.0660 C   0  0  0  0  0  0  0  0  0  0  0  0
   -1.7170   15.7450   -5.4040 C   0  0  0  0  0  0  0  0  0  0  0  0
   -1.7550   14.0190   -5.5610 S   0  0  0  0  0  0  0  0  0  0  0  0
   -0.6090   17.5330   -4.2480 C   0  0  0  0  0  0  0  0  0  0  0  0
    0.4000   12.2080   -2.6300 C   0  0  0  0  0  0  0  0  0  0  0  0
   -1.3650   18.4550   -4.9600 C   0  0  0  0  0  0  0  0  0  0  0  0
   -2.4930   16.6810   -6.0990 C   0  0  0  0  0  0  0  0  0  0  0  0
    1.4700   12.9500   -2.2770 O   0  0  0  0  0  0  0  0  0  0  0  0
   -0.0950   11.4620   -1.8030 O   0  0  0  0  0  0  0  0  0  0  0  0
   -2.2940   18.0290   -5.8700 C   0  0  0  0  0  0  0  0  0  0  0  0
  1  2  1  0
  2  3  2  0
  2  4  1  0
  4  5  1  0
  5  6  2  0
  5  7  1  0
  6  8  1  0
  7  9  2  0
  8 10  2  0
  9 10  1  0
 10 11  1  0
 11 12  2  3
 11 13  1  0
 12 14  1  0
 14 15  2  0
 14 16  1  0
 15 17  1  0
 16 18  2  0
 15 19  1  0
 18 19  1  0
 16 20  1  0
 17 21  1  0
 20 22  2  0
 18 23  1  0
 21 24  1  0
 21 25  2  0
 22 26  1  0
 23 26  2  0
M  END
