mac-x0527-mac-x0510
     RDKit          3D

 20 22  0  0  0  0  0  0  0  0999 V2000
   -3.5180   15.6670   -3.4570 O   0  0  0  0  0  0  0  0  0  0  0  0
   -2.9210   15.0560   -2.5800 C   0  0  0  0  0  0  0  0  0  0  0  0
   -1.5860   14.7290   -2.6980 N   0  0  0  0  0  0  0  0  0  0  0  0
   -3.5720   14.5680   -1.2870 C   0  0  2  0  0  0  0  0  0  0  0  0
   -0.9230   14.7470   -3.9880 C   0  0  0  0  0  0  0  0  0  0  0  0
   -5.0770   14.8630   -1.3690 C   0  0  0  0  0  0  0  0  0  0  0  0
   -2.9790   15.0850    0.0590 C   0  0  2  0  0  0  0  0  0  0  0  0
   -0.9000   13.3690   -4.6100 C   0  0  0  0  0  0  0  0  0  0  0  0
   -5.7010   14.5190   -0.1030 N   0  0  0  0  0  0  0  0  0  0  0  0
   -3.9700   15.5520    1.0850 C   0  0  0  0  0  0  0  0  0  0  0  0
   -1.7610   15.9460   -0.1370 N   0  0  0  0  0  0  0  0  0  0  0  0
   -2.3640   14.0610    0.9460 C   0  0  0  0  0  0  0  0  0  0  0  0
   -1.8450   12.3890   -4.2620 C   0  0  0  0  0  0  0  0  0  0  0  0
    0.0860   13.0560   -5.5590 C   0  0  0  0  0  0  0  0  0  0  0  0
   -5.2460   15.2170    0.9640 C   0  0  0  0  0  0  0  0  0  0  0  0
   -1.1300   14.2740    1.2470 N   0  0  0  0  0  0  0  0  0  0  0  0
   -0.8150   15.4000    0.5640 C   0  0  0  0  0  0  0  0  0  0  0  0
   -1.7980   11.1230   -4.8540 C   0  0  0  0  0  0  0  0  0  0  0  0
    0.1300   11.7930   -6.1470 C   0  0  0  0  0  0  0  0  0  0  0  0
   -0.8120   10.8260   -5.7940 C   0  0  0  0  0  0  0  0  0  0  0  0
  1  2  2  0
  2  3  1  0
  4  2  1  6
  3  5  1  0
  4  6  1  0
  4  7  1  0
  5  8  1  0
  6  9  1  0
  7 10  1  1
  7 11  1  0
  7 12  1  0
  8 13  2  0
  8 14  1  0
  9 15  1  0
 10 15  2  0
 12 16  2  0
 11 17  2  0
 16 17  1  0
 13 18  1  0
 14 19  2  0
 18 20  2  0
 19 20  1  0
M  END
