mac-x0341-diamond-x0628_0_A
     RDKit          3D

 25 27  0  0  0  0  0  0  0  0999 V2000
   -6.7820   14.8840    2.4020 N   0  0  0  0  0  0  0  0  0  0  0  0
   -6.0340   14.8400    1.2720 C   0  0  0  0  0  0  0  0  0  0  0  0
   -4.7490   15.0130    1.3450 N   0  0  0  0  0  0  0  0  0  0  0  0
   -6.6770   14.6020    0.0950 N   0  0  0  0  0  0  0  0  0  0  0  0
   -6.0720   14.8990   -1.0980 C   0  0  0  0  0  0  0  0  0  0  0  0
   -4.0030   14.8580    0.1690 C   0  0  0  0  0  0  0  0  0  0  0  0
   -6.6910   15.2220   -2.1030 O   0  0  0  0  0  0  0  0  0  0  0  0
   -4.6130   14.7790   -1.0750 C   0  0  0  0  0  0  0  0  0  0  0  0
   -2.6100   14.7510    0.2370 C   0  0  0  0  0  0  0  0  0  0  0  0
   -1.8570   14.5410   -0.9310 C   0  0  0  0  0  0  0  0  0  0  0  0
   -3.8850   14.5740   -2.2400 C   0  0  0  0  0  0  0  0  0  0  0  0
   -2.4950   14.4360   -2.1870 C   0  0  0  0  0  0  0  0  0  0  0  0
   -1.7530   14.1500   -3.4830 C   0  0  0  0  0  0  0  0  0  0  0  0
   -2.3640   12.8760   -4.1500 C   0  0  0  0  0  0  0  0  0  0  0  0
   -1.5240   12.0050   -5.0570 C   0  0  0  0  0  0  0  0  0  0  0  0
   -1.9300   10.8500   -5.5790 N   0  0  0  0  0  0  0  0  0  0  0  0
   -0.2410   12.2300   -5.5010 N   0  0  0  0  0  0  0  0  0  0  0  0
    0.6630   13.3290   -5.2370 C   0  0  0  0  0  0  0  0  0  0  0  0
   -0.8700   10.4150   -6.3260 C   0  0  0  0  0  0  0  0  0  0  0  0
    0.1820   11.2330   -6.3080 N   0  0  0  0  0  0  0  0  0  0  0  0
   -0.8840    9.1490   -7.0880 C   0  0  0  0  0  0  0  0  0  0  0  0
    1.7280   12.9770   -4.1990 C   0  0  0  0  0  0  0  0  0  0  0  0
    1.1290   12.2540   -3.0180 C   0  0  0  0  0  0  0  0  0  0  0  0
    0.5970   11.1550   -3.0480 O   0  0  0  0  0  0  0  0  0  0  0  0
    1.2420   12.9510   -1.8700 O   0  0  0  0  0  0  0  0  0  0  0  0
  1  2  1  0
  2  3  2  0
  2  4  1  0
  4  5  1  0
  3  6  1  0
  5  7  2  0
  5  8  1  0
  6  8  2  0
  6  9  1  0
  9 10  2  0
  8 11  1  0
 10 12  1  0
 11 12  2  0
 12 13  1  0
 13 14  1  0
 14 15  1  0
 15 16  2  0
 15 17  1  0
 17 18  1  0
 16 19  1  0
 17 20  1  0
 19 20  2  0
 19 21  1  0
 18 22  1  0
 22 23  1  0
 23 24  2  0
 23 25  1  0
M  END
