mac-x0178-mac-x0179
     RDKit          3D

 25 27  0  0  0  0  0  0  0  0999 V2000
   -0.3320   18.2100   -6.4550 N   0  0  0  0  0  0  0  0  0  0  0  0
   -1.7030   17.6490   -5.6620 S   0  0  0  0  0  0  0  0  0  0  0  0
   -2.6130   17.2150   -6.7000 O   0  0  0  0  0  0  0  0  0  0  0  0
   -2.0450   18.6430   -4.6850 O   0  0  0  0  0  0  0  0  0  0  0  0
   -1.0690   16.2360   -4.8030 C   0  0  0  0  0  0  0  0  0  0  0  0
    0.1850   16.2940   -4.1910 C   0  0  0  0  0  0  0  0  0  0  0  0
   -1.8440   15.0800   -4.7520 C   0  0  0  0  0  0  0  0  0  0  0  0
    0.6680   15.1700   -3.5200 C   0  0  0  0  0  0  0  0  0  0  0  0
   -1.3570   13.9650   -4.0820 C   0  0  0  0  0  0  0  0  0  0  0  0
   -0.0980   13.9930   -3.4600 C   0  0  0  0  0  0  0  0  0  0  0  0
    0.4250   12.7650   -2.7530 C   0  0  0  0  0  0  0  0  0  0  0  0
    1.5470   13.1040   -1.9520 O   0  0  0  0  0  0  0  0  0  0  0  0
   -0.4570   12.1490   -1.8270 O   0  0  0  0  0  0  0  0  0  0  0  0
    0.8530   11.7850   -3.8560 C   0  0  0  0  0  0  0  0  0  0  0  0
    0.0820   11.7370   -5.0970 N   0  0  0  0  0  0  0  0  0  0  0  0
    0.7030   11.4880   -6.3040 C   0  0  0  0  0  0  0  0  0  0  0  0
   -1.1540   11.1490   -5.0980 C   0  0  0  0  0  0  0  0  0  0  0  0
    1.7000   11.9880   -6.7690 O   0  0  0  0  0  0  0  0  0  0  0  0
   -2.0820   11.3090   -4.3360 O   0  0  0  0  0  0  0  0  0  0  0  0
   -0.0590   10.4270   -6.9670 C   0  0  0  0  0  0  0  0  0  0  0  0
   -1.1980   10.2220   -6.2210 C   0  0  0  0  0  0  0  0  0  0  0  0
    0.2020    9.6960   -8.1110 C   0  0  0  0  0  0  0  0  0  0  0  0
   -2.1470    9.2790   -6.5630 C   0  0  0  0  0  0  0  0  0  0  0  0
   -0.7450    8.7300   -8.4840 C   0  0  0  0  0  0  0  0  0  0  0  0
   -1.9100    8.5240   -7.7150 C   0  0  0  0  0  0  0  0  0  0  0  0
  2  1  1  0
  2  3  2  0
  2  4  2  0
  2  5  1  0
  5  6  2  0
  5  7  1  0
  6  8  1  0
  7  9  2  0
  8 10  2  0
  9 10  1  0
 10 11  1  0
 11 12  1  0
 11 13  1  0
 11 14  1  0
 14 15  1  0
 15 16  1  0
 15 17  1  0
 16 18  2  0
 17 19  2  0
 16 20  1  0
 17 21  1  0
 20 21  2  0
 20 22  1  0
 21 23  1  0
 22 24  2  0
 23 25  2  0
 24 25  1  0
M  END
