mac-x0567-diamond-x0662_0_A
     RDKit          3D

 31 34  0  0  0  0  0  0  0  0999 V2000
    0.2150   13.7550    0.0120 N   0  0  0  0  0  0  0  0  0  0  0  0
   -1.0170   14.2180    0.3390 C   0  0  0  0  0  0  0  0  0  0  0  0
   -1.3830   14.3620    1.6380 N   0  0  0  0  0  0  0  0  0  0  0  0
   -2.1200   14.6250   -0.3750 C   0  0  0  0  0  0  0  0  0  0  0  0
   -2.6360   14.8320    1.8320 N   0  0  0  0  0  0  0  0  0  0  0  0
   -3.1190   15.0090    0.5960 C   0  0  0  0  0  0  0  0  0  0  0  0
   -2.2690   14.6690   -1.7720 C   0  0  0  0  0  0  0  0  0  0  0  0
   -1.2640   14.2750   -2.8100 C   0  0  0  0  0  0  0  0  0  0  0  0
   -4.3790   15.4850    0.1990 C   0  0  0  0  0  0  0  0  0  0  0  0
   -3.5560   15.1580   -2.1290 C   0  0  0  0  0  0  0  0  0  0  0  0
   -1.6290   12.9160   -3.4310 C   0  0  0  0  0  0  0  0  0  0  0  0
   -4.5600   15.5470   -1.1970 C   0  0  0  0  0  0  0  0  0  0  0  0
   -0.4170   12.0010   -3.6200 C   0  0  0  0  0  0  0  0  0  0  0  0
   -0.6070   11.2300   -4.8450 N   0  0  0  0  0  0  0  0  0  0  0  0
    0.1630   11.3640   -5.8670 C   0  0  0  0  0  0  0  0  0  0  0  0
    1.1370   12.1310   -5.9790 O   0  0  0  0  0  0  0  0  0  0  0  0
    0.0240   10.5830   -7.1390 C   0  0  0  0  0  0  0  0  0  0  0  0
   -0.9380    9.5730   -7.2190 C   0  0  0  0  0  0  0  0  0  0  0  0
    0.8470   10.8530   -8.2390 C   0  0  0  0  0  0  0  0  0  0  0  0
   -1.0760    8.8400   -8.3940 C   0  0  0  0  0  0  0  0  0  0  0  0
    0.7180   10.1250   -9.4290 C   0  0  0  0  0  0  0  0  0  0  0  0
    1.4920   10.3170  -10.5980 N   0  0  0  0  0  0  0  0  0  0  0  0
   -0.2530    9.1160   -9.4910 C   0  0  0  0  0  0  0  0  0  0  0  0
    2.2240    9.3790  -11.3090 C   0  0  0  0  0  0  0  0  0  0  0  0
    2.3480    8.1960  -11.0330 O   0  0  0  0  0  0  0  0  0  0  0  0
    2.9160    9.9320  -12.5050 C   0  0  0  0  0  0  0  0  0  0  0  0
    2.7170   11.1900  -13.1430 C   0  0  0  0  0  0  0  0  0  0  0  0
    3.8820    9.2260  -13.1340 N   0  0  0  0  0  0  0  0  0  0  0  0
    4.2790   10.0260  -14.1380 N   0  0  0  0  0  0  0  0  0  0  0  0
    3.6120   11.2150  -14.1890 C   0  0  0  0  0  0  0  0  0  0  0  0
    5.3270    9.5740  -15.0230 C   0  0  0  0  0  0  0  0  0  0  0  0
  1  2  1  0
  2  3  1  0
  2  4  2  0
  3  5  1  0
  4  6  1  0
  5  6  2  0
  4  7  1  0
  7  8  1  0
  6  9  1  0
  7 10  2  0
  8 11  1  0
  9 12  2  0
 10 12  1  0
 11 13  1  0
 13 14  1  0
 14 15  2  3
 15 16  1  0
 15 17  1  0
 17 18  2  0
 17 19  1  0
 18 20  1  0
 19 21  2  0
 21 22  1  0
 20 23  2  0
 21 23  1  0
 22 24  1  0
 24 25  2  0
 24 26  1  0
 26 27  1  0
 26 28  2  0
 28 29  1  0
 27 30  2  0
 29 30  1  0
 29 31  1  0
M  CHG  1  16  -1
M  END
