mac-x0472-mac-x0397
     RDKit          3D

 21 23  0  0  0  0  0  0  0  0999 V2000
   -4.0410   14.5970   -2.5950 O   0  0  0  0  0  0  0  0  0  0  0  0
   -3.0910   13.5210   -2.4700 S   0  0  0  0  0  0  0  0  0  0  0  0
   -2.0530   13.3750   -3.4600 O   0  0  0  0  0  0  0  0  0  0  0  0
   -2.4750   13.5940   -0.9360 N   0  0  0  0  0  0  0  0  0  0  0  0
   -4.0730   12.0950   -2.3190 C   0  0  0  0  0  0  0  0  0  0  0  0
   -2.6630   14.8490   -0.3460 C   0  0  2  0  0  0  0  0  0  0  0  0
   -3.5620   10.9060   -2.7980 C   0  0  0  0  0  0  0  0  0  0  0  0
   -5.3320   12.1750   -1.7240 C   0  0  0  0  0  0  0  0  0  0  0  0
   -1.9800   15.2640    0.9140 N   0  0  0  0  0  0  0  0  0  0  0  0
   -4.2890   14.8820    0.2250 S   0  0  0  0  0  0  0  0  0  0  0  0
   -4.3250    9.7580   -2.6880 C   0  0  0  0  0  0  0  0  0  0  0  0
   -6.0950   11.0240   -1.6110 C   0  0  0  0  0  0  0  0  0  0  0  0
   -2.7920   15.6310   -1.6030 C   0  0  0  0  0  0  0  0  0  0  0  0
   -4.0620   15.1610    1.8410 C   0  0  0  0  0  0  0  0  0  0  0  0
   -2.6930   15.1260    2.0210 N   0  0  0  0  0  0  0  0  0  0  0  0
   -5.5920    9.8180   -2.0950 C   0  0  0  0  0  0  0  0  0  0  0  0
   -3.9920   15.7360   -2.3190 C   0  0  0  0  0  0  0  0  0  0  0  0
   -5.6510   14.7490   -0.7650 C   0  0  0  0  0  0  0  0  0  0  0  0
   -5.0770   15.3650    2.7110 N   0  0  0  0  0  0  0  0  0  0  0  0
   -5.3420   15.1680   -1.9560 C   0  0  0  0  0  0  0  0  0  0  0  0
   -6.6140   15.0050   -3.0920 Cl  0  0  0  0  0  0  0  0  0  0  0  0
  1  2  2  0
  2  3  2  0
  2  4  1  0
  2  5  1  0
  6  4  1  6
  5  7  2  0
  5  8  1  0
  6  9  1  0
  6 10  1  0
  7 11  1  0
  8 12  2  0
  6 13  1  0
 10 14  2  0
  9 15  2  0
 14 15  1  0
 11 16  2  0
 12 16  1  0
 13 17  2  0
 10 18  1  0
 14 19  1  0
 17 20  1  0
 18 20  2  0
 20 21  1  0
M  END
