mac-x0326-mac-x0179
     RDKit          3D

 26 29  0  0  0  0  0  0  0  0999 V2000
   -6.3030   15.5480   -1.3640 Cl  0  0  0  0  0  0  0  0  0  0  0  0
   -4.6090   15.2600   -1.3410 C   0  0  0  0  0  0  0  0  0  0  0  0
   -3.9240   15.1540   -2.5470 C   0  0  0  0  0  0  0  0  0  0  0  0
   -3.9490   15.1360   -0.1210 C   0  0  0  0  0  0  0  0  0  0  0  0
   -2.5440   14.9140   -2.5290 C   0  0  0  0  0  0  0  0  0  0  0  0
   -2.5730   14.8940   -0.0800 C   0  0  0  0  0  0  0  0  0  0  0  0
   -1.7500   14.7860   -3.6480 N   0  0  0  0  0  0  0  0  0  0  0  0
   -1.8850   14.7860   -1.3030 C   0  0  0  0  0  0  0  0  0  0  0  0
   -0.5070   14.5580   -3.2950 C   0  0  0  0  0  0  0  0  0  0  0  0
   -0.2100   14.5000   -1.6000 S   0  0  0  0  0  0  0  0  0  0  0  0
    0.5750   14.3460   -4.3060 C   0  0  0  0  0  0  0  0  0  0  0  0
    0.9290   12.8590   -4.4530 C   0  0  1  0  0  0  0  0  0  0  0  0
    1.0350   12.1220   -3.1270 C   0  0  0  0  0  0  0  0  0  0  0  0
    0.1520   12.0700   -5.4310 N   0  0  0  0  0  0  0  0  0  0  0  0
    0.3060   10.9920   -3.0460 O   0  0  0  0  0  0  0  0  0  0  0  0
    1.7040   12.4720   -2.1720 O   0  0  0  0  0  0  0  0  0  0  0  0
    0.8010   11.5370   -6.4990 C   0  0  0  0  0  0  0  0  0  0  0  0
   -0.9590   11.3020   -5.1380 C   0  0  0  0  0  0  0  0  0  0  0  0
    1.8740   11.8540   -6.9180 O   0  0  0  0  0  0  0  0  0  0  0  0
   -1.7150   11.3750   -4.1930 O   0  0  0  0  0  0  0  0  0  0  0  0
   -0.0210   10.4620   -7.0500 C   0  0  0  0  0  0  0  0  0  0  0  0
   -1.1040   10.3140   -6.2140 C   0  0  0  0  0  0  0  0  0  0  0  0
    0.1530    9.6770   -8.1750 C   0  0  0  0  0  0  0  0  0  0  0  0
   -2.0870    9.3690   -6.4480 C   0  0  0  0  0  0  0  0  0  0  0  0
   -0.8250    8.7130   -8.4360 C   0  0  0  0  0  0  0  0  0  0  0  0
   -1.9380    8.5570   -7.5820 C   0  0  0  0  0  0  0  0  0  0  0  0
  1  2  1  0
  2  3  2  0
  2  4  1  0
  3  5  1  0
  4  6  2  0
  5  7  1  0
  5  8  2  0
  6  8  1  0
  7  9  2  0
  8 10  1  0
  9 10  1  0
  9 11  1  0
 12 11  1  1
 12 13  1  0
 12 14  1  0
 13 15  1  0
 13 16  2  0
 14 17  1  0
 14 18  1  0
 17 19  2  0
 18 20  2  0
 17 21  1  0
 18 22  1  0
 21 22  2  0
 21 23  1  0
 22 24  1  0
 23 25  2  0
 24 26  2  0
 25 26  1  0
M  END
