mac-x0116-diamond-x0837_0_A
     RDKit          3D

 24 27  0  0  0  0  0  0  0  0999 V2000
   -7.4750   14.0960    3.0120 C   0  0  0  0  0  0  0  0  0  0  0  0
   -7.3380   12.8590    2.1270 C   0  0  2  0  0  0  0  0  0  0  0  0
   -8.4590   12.7110    1.0630 C   0  0  2  0  0  0  0  0  0  0  0  0
   -7.4210   11.5450    2.8940 C   0  0  0  0  0  0  0  0  0  0  0  0
   -7.7780   10.6170    1.7720 C   0  0  0  0  0  0  0  0  0  0  0  0
   -8.3250   11.2630    0.7410 C   0  0  0  0  0  0  0  0  0  0  0  0
   -8.3070   13.7400   -0.0500 C   0  0  0  0  0  0  0  0  0  0  0  0
   -7.5230   14.6680    0.7070 N   0  0  0  0  0  0  0  0  0  0  0  0
   -6.2630   14.5220    0.6880 C   0  0  0  0  0  0  0  0  0  0  0  0
   -5.3500   15.2220    1.4140 N   0  0  0  0  0  0  0  0  0  0  0  0
   -5.7050   13.4670   -0.2380 C   0  0  0  0  0  0  0  0  0  0  0  0
   -4.1890   15.8440    0.8160 C   0  0  1  0  0  0  0  0  0  0  0  0
   -4.6970   14.2480   -1.0090 C   0  0  1  0  0  0  0  0  0  0  0  0
   -4.9660   14.0900   -3.1460 I   0  0  0  0  0  0  0  0  0  0  0  0
   -3.0890   15.2520    0.0160 C   0  0  0  0  0  0  0  0  0  0  0  0
   -4.9210   15.6870   -0.5170 C   0  0  0  0  0  0  0  0  0  0  0  0
   -3.2820   15.2450   -1.3670 N   0  0  0  0  0  0  0  0  0  0  0  0
   -1.9610   14.7400    0.4680 C   0  0  0  0  0  0  0  0  0  0  0  0
   -2.3370   14.7730   -2.2220 C   0  0  0  0  0  0  0  0  0  0  0  0
   -1.0110   14.2270   -0.5210 C   0  0  0  0  0  0  0  0  0  0  0  0
   -1.4280   14.5640    1.6980 N   0  0  0  0  0  0  0  0  0  0  0  0
   -1.2120   14.2650   -1.8690 N   0  0  0  0  0  0  0  0  0  0  0  0
    0.0150   13.7520    0.0870 N   0  0  0  0  0  0  0  0  0  0  0  0
   -0.3000   13.9820    1.4260 C   0  0  0  0  0  0  0  0  0  0  0  0
  2  1  1  1
  2  3  1  0
  2  4  1  0
  4  5  1  0
  3  6  1  0
  5  6  2  0
  3  7  1  6
  7  8  1  0
  8  9  2  3
  9 10  1  0
  9 11  1  0
 10 12  1  0
 11 13  1  0
 13 14  1  6
 12 15  1  6
 12 16  1  0
 13 16  1  0
 15 17  1  0
 15 18  2  0
 17 19  1  0
 18 20  1  0
 18 21  1  0
 19 22  2  0
 20 22  1  0
 20 23  2  0
 21 24  2  0
 23 24  1  0
M  END
