mac-x0587-diamond-x0837_0_A
     RDKit          3D

 22 23  0  0  0  0  0  0  0  0999 V2000
   -0.3830   15.5690   -3.5110 C   0  0  0  0  0  0  0  0  0  0  0  0
   -1.2920   14.3520   -3.1600 C   0  0  2  0  0  0  0  0  0  0  0  0
   -1.0160   13.2250   -4.6090 S   0  0  0  0  0  0  0  0  0  0  0  0
   -2.7810   14.8030   -2.6630 C   0  0  2  0  0  0  0  0  0  0  0  0
   -0.8330   11.5780   -3.8570 C   0  0  0  0  0  0  0  0  0  0  0  0
   -3.4500   15.4130   -3.7890 O   0  0  0  0  0  0  0  0  0  0  0  0
   -2.6470   15.8360   -1.6660 N   0  0  0  0  0  0  0  0  0  0  0  0
   -3.8520   13.9100   -1.7980 C   0  0  1  0  0  0  0  0  0  0  0  0
    0.4020   11.4350   -2.9970 C   0  0  0  0  0  0  0  0  0  0  0  0
   -3.8640   15.8060   -0.8510 C   0  0  0  0  0  0  0  0  0  0  0  0
   -1.5820   15.6750   -0.7520 C   0  0  0  0  0  0  0  0  0  0  0  0
   -3.3920   13.6300   -0.3620 C   0  0  0  0  0  0  0  0  0  0  0  0
   -5.3430   14.4240   -1.7880 C   0  0  0  0  0  0  0  0  0  0  0  0
    0.6730   10.4930   -2.2650 O   0  0  0  0  0  0  0  0  0  0  0  0
    1.2540   12.4790   -3.0790 O   0  0  0  0  0  0  0  0  0  0  0  0
   -0.3900   15.6530   -0.9840 O   0  0  0  0  0  0  0  0  0  0  0  0
   -3.4330   15.9300    0.5960 C   0  0  0  0  0  0  0  0  0  0  0  0
   -2.0770   15.5130    0.5200 N   0  0  0  0  0  0  0  0  0  0  0  0
   -4.1340   13.8280    0.7500 C   0  0  0  0  0  0  0  0  0  0  0  0
   -6.1020   14.5370   -0.4510 C   0  0  0  0  0  0  0  0  0  0  0  0
   -7.3050   14.8110   -0.3910 O   0  0  0  0  0  0  0  0  0  0  0  0
   -5.4080   14.3140    0.6980 N   0  0  0  0  0  0  0  0  0  0  0  0
  2  1  1  6
  2  3  1  0
  2  4  1  0
  3  5  1  0
  4  6  1  6
  4  7  1  0
  4  8  1  0
  5  9  1  0
  7 10  1  0
  7 11  1  0
  8 12  1  1
  8 13  1  0
  9 14  2  0
  9 15  1  0
 11 16  2  0
 10 17  1  0
 11 18  1  0
 17 18  1  0
 12 19  2  0
 13 20  1  0
 20 21  2  0
 19 22  1  0
 20 22  1  0
M  END
