mac-x0124-mac-x0179
     RDKit          3D

 27 30  0  0  0  0  0  0  0  0999 V2000
    0.7760   14.5740   -2.2310 C   0  0  0  0  0  0  0  0  0  0  0  0
   -0.6060   14.6260   -1.8040 N   0  0  0  0  0  0  0  0  0  0  0  0
   -1.7010   14.6390   -2.5770 C   0  0  0  0  0  0  0  0  0  0  0  0
   -0.9270   14.6580   -0.5450 C   0  0  0  0  0  0  0  0  0  0  0  0
   -1.3330   14.5430   -3.9740 C   0  0  0  0  0  0  0  0  0  0  0  0
   -2.8270   14.7300   -1.7480 C   0  0  0  0  0  0  0  0  0  0  0  0
   -2.3000   14.7300   -0.4070 C   0  0  0  0  0  0  0  0  0  0  0  0
    0.0180   14.6160    0.3590 N   0  0  0  0  0  0  0  0  0  0  0  0
    0.0110   14.1010   -3.6120 O   0  0  0  0  0  0  0  0  0  0  0  0
   -2.7340   14.7760    0.9260 C   0  0  0  0  0  0  0  0  0  0  0  0
   -0.4950   14.6320    1.5530 C   0  0  0  0  0  0  0  0  0  0  0  0
   -4.0540   14.8730    1.3370 N   0  0  0  0  0  0  0  0  0  0  0  0
    0.4180   12.8270   -3.8420 C   0  0  0  0  0  0  0  0  0  0  0  0
   -1.7900   14.7100    1.8920 N   0  0  0  0  0  0  0  0  0  0  0  0
    0.4620   11.8660   -3.0600 O   0  0  0  0  0  0  0  0  0  0  0  0
    0.8430   12.7800   -5.2580 C   0  0  0  0  0  0  0  0  0  0  0  0
    0.0380   11.8560   -5.9720 N   0  0  0  0  0  0  0  0  0  0  0  0
    0.6710   11.1360   -6.8850 C   0  0  0  0  0  0  0  0  0  0  0  0
   -0.9880   11.1310   -5.4300 C   0  0  0  0  0  0  0  0  0  0  0  0
    1.7730   11.2930   -7.2670 O   0  0  0  0  0  0  0  0  0  0  0  0
   -1.5810   11.2850   -4.3780 O   0  0  0  0  0  0  0  0  0  0  0  0
   -0.2180   10.0960   -7.3070 C   0  0  0  0  0  0  0  0  0  0  0  0
   -1.2610   10.0740   -6.4080 C   0  0  0  0  0  0  0  0  0  0  0  0
   -0.1270    9.2410   -8.3770 C   0  0  0  0  0  0  0  0  0  0  0  0
   -2.2980    9.1760   -6.5270 C   0  0  0  0  0  0  0  0  0  0  0  0
   -1.1600    8.3230   -8.5230 C   0  0  0  0  0  0  0  0  0  0  0  0
   -2.2380    8.2860   -7.6100 C   0  0  0  0  0  0  0  0  0  0  0  0
  1  2  1  0
  2  3  1  0
  2  4  1  0
  3  5  1  0
  3  6  2  0
  4  7  2  0
  6  7  1  0
  4  8  1  0
  5  9  1  0
  7 10  1  0
  8 11  2  0
 10 12  1  0
  9 13  1  0
 10 14  2  0
 11 14  1  0
 13 15  2  0
 13 16  1  0
 16 17  1  0
 17 18  1  0
 17 19  1  0
 18 20  2  0
 19 21  2  0
 18 22  1  0
 19 23  1  0
 22 23  2  0
 22 24  1  0
 23 25  1  0
 24 26  2  0
 25 27  2  0
 26 27  1  0
M  END
