mac-x0361-mac-x0398
     RDKit          3D

 12 12  0  0  0  0  0  0  0  0999 V2000
   -6.4340   14.8360    1.8900 N   0  0  0  0  0  0  0  0  0  0  0  0
   -6.6360   14.7000    0.5400 C   0  0  0  0  0  0  0  0  0  0  0  0
   -7.7580   14.4850    0.0970 O   0  0  0  0  0  0  0  0  0  0  0  0
   -5.4750   14.8230   -0.3770 C   0  0  0  0  0  0  0  0  0  0  0  0
   -4.1810   14.6680    0.1470 C   0  0  0  0  0  0  0  0  0  0  0  0
   -5.6580   15.0810   -1.7380 C   0  0  0  0  0  0  0  0  0  0  0  0
   -3.0760   14.7670   -0.6910 C   0  0  0  0  0  0  0  0  0  0  0  0
   -4.5580   15.1780   -2.5700 C   0  0  0  0  0  0  0  0  0  0  0  0
   -3.2800   15.0190   -2.0400 C   0  0  0  0  0  0  0  0  0  0  0  0
   -2.1690   15.1070   -2.8640 O   0  0  0  0  0  0  0  0  0  0  0  0
   -2.5500   15.1900   -4.1700 C   0  0  0  0  0  0  0  0  0  0  0  0
   -3.6790   15.2330   -4.6220 O   0  0  0  0  0  0  0  0  0  0  0  0
  1  2  1  0
  2  3  2  0
  2  4  1  0
  4  5  2  0
  4  6  1  0
  5  7  1  0
  6  8  2  0
  7  9  2  0
  8  9  1  0
  9 10  1  0
 10 11  1  0
 11 12  2  0
M  END
