mac-x0344-diamond-x0689_0_A
     RDKit          3D

 21 22  0  0  0  0  0  0  0  0999 V2000
    1.2440   13.8470   -4.9650 O   0  0  0  0  0  0  0  0  0  0  0  0
    0.9640   13.3010   -3.7760 C   0  0  0  0  0  0  0  0  0  0  0  0
    1.1190   13.9730   -2.6620 N   0  0  0  0  0  0  0  0  0  0  0  0
    0.4610   11.8530   -3.9670 C   0  0  0  0  0  0  0  0  0  0  0  0
    0.3530   11.1260   -2.9860 O   0  0  0  0  0  0  0  0  0  0  0  0
    0.1990   11.5990   -5.3070 N   0  0  0  0  0  0  0  0  0  0  0  0
    0.8760   13.4190   -1.3260 C   0  0  0  0  0  0  0  0  0  0  0  0
   -0.6970   10.6760   -5.8920 C   0  0  0  0  0  0  0  0  0  0  0  0
   -0.3130   13.9270   -0.5390 C   0  0  0  0  0  0  0  0  0  0  0  0
   -0.3340   10.1150   -7.1280 C   0  0  0  0  0  0  0  0  0  0  0  0
   -1.9120   10.2940   -5.3150 C   0  0  0  0  0  0  0  0  0  0  0  0
   -1.4710   14.3550   -1.1230 C   0  0  0  0  0  0  0  0  0  0  0  0
   -0.3430   13.9920    0.8570 C   0  0  0  0  0  0  0  0  0  0  0  0
   -1.1680    9.1930   -7.7690 C   0  0  0  0  0  0  0  0  0  0  0  0
   -2.7440    9.3720   -5.9580 C   0  0  0  0  0  0  0  0  0  0  0  0
   -2.5400   14.7860   -0.4300 N   0  0  0  0  0  0  0  0  0  0  0  0
   -1.3880   14.4220    1.6020 N   0  0  0  0  0  0  0  0  0  0  0  0
   -2.3760    8.8210   -7.1820 C   0  0  0  0  0  0  0  0  0  0  0  0
   -2.4630   14.7990    0.9110 C   0  0  0  0  0  0  0  0  0  0  0  0
   -3.5550   15.2240    1.6460 N   0  0  0  0  0  0  0  0  0  0  0  0
   -4.7160   15.3820    0.8160 C   0  0  0  0  0  0  0  0  0  0  0  0
  1  2  1  0
  2  3  2  3
  2  4  1  0
  4  5  2  0
  4  6  1  0
  3  7  1  0
  6  8  1  0
  7  9  1  0
  8 10  2  0
  8 11  1  0
  9 12  2  0
  9 13  1  0
 10 14  1  0
 11 15  2  0
 12 16  1  0
 13 17  2  0
 14 18  2  0
 15 18  1  0
 16 19  2  0
 17 19  1  0
 19 20  1  0
 20 21  1  0
M  END
