mac-x0385-mac-x0338
     RDKit          3D

 17 18  0  0  0  0  0  0  0  0999 V2000
   -4.8610   16.0050   -0.9640 C   0  0  0  0  0  0  0  0  0  0  0  0
   -3.5440   15.6740   -0.3470 C   0  0  0  0  0  0  0  0  0  0  0  0
   -2.4010   15.7330   -1.1010 C   0  0  0  0  0  0  0  0  0  0  0  0
   -3.3920   15.2860    0.9730 C   0  0  0  0  0  0  0  0  0  0  0  0
   -4.5780   15.2190    1.6960 N   0  0  0  0  0  0  0  0  0  0  0  0
   -2.2040   14.9760    1.5080 N   0  0  0  0  0  0  0  0  0  0  0  0
   -1.2000   15.4300   -0.6250 N   0  0  0  0  0  0  0  0  0  0  0  0
   -5.6600   14.7490    1.0110 C   0  0  0  0  0  0  0  0  0  0  0  0
   -1.1710   15.0610    0.6610 C   0  0  0  0  0  0  0  0  0  0  0  0
    0.1350   14.6990    1.1800 C   0  0  0  0  0  0  0  0  0  0  0  0
   -6.7720   14.6110    1.5240 O   0  0  0  0  0  0  0  0  0  0  0  0
   -5.4060   14.4320   -0.4160 C   0  0  0  0  0  0  0  0  0  0  0  0
   -4.2370   13.7780   -0.7170 N   0  0  0  0  0  0  0  0  0  0  0  0
   -6.3180   14.8050   -1.3950 C   0  0  0  0  0  0  0  0  0  0  0  0
   -4.0320   13.5400   -2.0290 C   0  0  0  0  0  0  0  0  0  0  0  0
   -6.0990   14.5520   -2.7130 N   0  0  0  0  0  0  0  0  0  0  0  0
   -4.9370   13.9190   -3.0010 C   0  0  0  0  0  0  0  0  0  0  0  0
  1  2  1  0
  2  3  2  0
  2  4  1  0
  4  5  1  0
  4  6  2  0
  3  7  1  0
  5  8  1  0
  6  9  1  0
  7  9  2  0
  9 10  1  0
  8 11  2  0
  8 12  1  0
 12 13  2  0
 12 14  1  0
 13 15  1  0
 14 16  2  0
 15 17  2  0
 16 17  1  0
M  END
