mac-x0439-mac-x0182
     RDKit          3D

 27 30  0  0  0  0  0  0  0  0999 V2000
   -3.1440   15.7240   -5.0210 Cl  0  0  0  0  0  0  0  0  0  0  0  0
   -1.6570   16.5400   -5.2800 C   0  0  0  0  0  0  0  0  0  0  0  0
   -0.3920   15.7710   -5.0790 C   0  0  2  0  0  0  0  0  0  0  0  0
   -1.6160   17.8290   -5.6770 C   0  0  0  0  0  0  0  0  0  0  0  0
   -0.1290   14.7540   -4.0280 C   0  0  0  0  0  0  0  0  0  0  0  0
    0.7150   16.7160   -4.7240 C   0  0  0  0  0  0  0  0  0  0  0  0
   -0.3440   18.4930   -5.9080 C   0  0  0  0  0  0  0  0  0  0  0  0
    0.9840   15.1010   -3.3700 C   0  0  0  0  0  0  0  0  0  0  0  0
    1.4960   16.2980   -3.7910 N   0  0  0  0  0  0  0  0  0  0  0  0
    0.8210   17.9940   -5.4630 C   0  0  0  0  0  0  0  0  0  0  0  0
    1.5910   14.2710   -2.2750 C   0  0  0  0  0  0  0  0  0  0  0  0
    2.7590   14.7290   -1.7640 O   0  0  0  0  0  0  0  0  0  0  0  0
    1.1180   13.1920   -1.7850 N   0  0  0  0  0  0  0  0  0  0  0  0
   -0.1310   12.6070   -2.2470 C   0  0  0  0  0  0  0  0  0  0  0  0
   -0.1040   11.0720   -2.1600 C   0  0  0  0  0  0  0  0  0  0  0  0
   -0.1390   10.3960   -3.4510 N   0  0  0  0  0  0  0  0  0  0  0  0
   -0.9000   11.1360   -4.5190 S   0  0  1  0  0  0  0  0  0  0  0  0
   -1.9720   12.0810   -4.3510 O   0  0  0  0  0  0  0  0  0  0  0  0
    0.3330   12.0300   -5.2460 N   0  0  0  0  0  0  0  0  0  0  0  0
   -1.2000   10.1230   -5.8720 C   0  0  0  0  0  0  0  0  0  0  0  0
    0.6950   11.4600   -6.4320 C   0  0  0  0  0  0  0  0  0  0  0  0
   -0.2590   10.4060   -6.8490 C   0  0  0  0  0  0  0  0  0  0  0  0
   -2.1850    9.1770   -6.0230 C   0  0  0  0  0  0  0  0  0  0  0  0
    1.6810   11.7440   -7.0600 O   0  0  0  0  0  0  0  0  0  0  0  0
   -2.2200    8.4830   -7.2280 C   0  0  0  0  0  0  0  0  0  0  0  0
   -0.2800    9.7240   -8.0510 C   0  0  0  0  0  0  0  0  0  0  0  0
   -1.2740    8.7540   -8.2380 C   0  0  0  0  0  0  0  0  0  0  0  0
  1  2  1  0
  2  3  1  0
  2  4  2  0
  3  5  1  1
  3  6  1  0
  4  7  1  0
  5  8  2  0
  6  9  2  0
  8  9  1  0
  6 10  1  0
  7 10  2  0
  8 11  1  0
 11 12  1  0
 11 13  2  3
 13 14  1  0
 14 15  1  0
 15 16  1  0
 16 17  2  0
 17 18  2  0
 17 19  1  6
 17 20  1  0
 19 21  1  0
 20 22  2  0
 21 22  1  0
 20 23  1  0
 21 24  2  0
 23 25  2  0
 22 26  1  0
 25 27  1  0
 26 27  2  0
M  END
