mac-x0453-diamond-x0592_0_A
     RDKit          3D

 18 19  0  0  0  0  0  0  0  0999 V2000
   -7.4330   13.6120    1.7560 N   0  0  0  0  0  0  0  0  0  0  0  0
   -6.2980   12.7140    1.3750 C   0  0  0  0  0  0  0  0  0  0  0  0
   -4.8430   13.2180    1.5740 C   0  0  0  0  0  0  0  0  0  0  0  0
   -6.9660   14.6220    2.7110 O   0  0  0  0  0  0  0  0  0  0  0  0
   -7.9620   14.4030    0.6360 C   0  0  0  0  0  0  0  0  0  0  0  0
   -6.8240   14.8230   -0.1720 N   0  0  0  0  0  0  0  0  0  0  0  0
   -3.9780   13.2950    0.3510 C   0  0  0  0  0  0  0  0  0  0  0  0
   -6.9040   14.9420   -1.5130 N   0  0  0  0  0  0  0  0  0  0  0  0
   -5.5840   15.1300    0.3150 C   0  0  0  0  0  0  0  0  0  0  0  0
   -2.6560   13.6870    0.2540 C   0  0  0  0  0  0  0  0  0  0  0  0
   -4.4610   12.9510   -0.9010 N   0  0  0  0  0  0  0  0  0  0  0  0
   -4.7950   15.4600   -0.7550 C   0  0  0  0  0  0  0  0  0  0  0  0
   -5.6700   15.3270   -1.8580 C   0  0  0  0  0  0  0  0  0  0  0  0
   -3.3980   15.8380   -0.6640 C   0  0  0  0  0  0  0  0  0  0  0  0
   -2.3410   13.5780   -1.0760 N   0  0  0  0  0  0  0  0  0  0  0  0
   -3.4530   13.1350   -1.7280 C   0  0  0  0  0  0  0  0  0  0  0  0
   -2.9080   16.0530    0.5930 N   0  0  0  0  0  0  0  0  0  0  0  0
   -2.6660   15.9620   -1.6400 O   0  0  0  0  0  0  0  0  0  0  0  0
  1  2  1  0
  2  3  1  0
  1  4  1  0
  1  5  1  0
  5  6  1  0
  3  7  1  0
  6  8  1  0
  6  9  1  0
  7 10  2  0
  7 11  1  0
  9 12  2  0
  8 13  2  0
 12 13  1  0
 12 14  1  0
 10 15  1  0
 11 16  2  0
 15 16  1  0
 14 17  1  0
 14 18  2  0
M  END
