mac-x0441-mac-x0404
     RDKit          3D

 28 31  0  0  0  0  0  0  0  0999 V2000
    0.5670   10.6990   -3.0460 O   0  0  0  0  0  0  0  0  0  0  0  0
    1.0110   11.9430   -3.3380 C   0  0  0  0  0  0  0  0  0  0  0  0
    1.8740   12.4460   -2.6420 O   0  0  0  0  0  0  0  0  0  0  0  0
    0.3160   12.5470   -4.5310 C   0  0  1  0  0  0  0  0  0  0  0  0
    0.8100   13.8540   -4.7920 O   0  0  0  0  0  0  0  0  0  0  0  0
    0.1780   11.6940   -5.7410 N   0  0  0  0  0  0  0  0  0  0  0  0
    0.9950   11.7700   -6.8540 N   0  0  0  0  0  0  0  0  0  0  0  0
   -0.7860   10.7410   -5.8990 C   0  0  0  0  0  0  0  0  0  0  0  0
   -0.3330   14.5610   -4.9760 C   0  0  0  0  0  0  0  0  0  0  0  0
    0.4890   10.8230   -7.7130 C   0  0  0  0  0  0  0  0  0  0  0  0
   -0.6090   10.1760   -7.1300 C   0  0  0  0  0  0  0  0  0  0  0  0
   -1.8510   10.3620   -4.9350 C   0  0  0  0  0  0  0  0  0  0  0  0
   -0.3140   15.9440   -5.1770 C   0  0  0  0  0  0  0  0  0  0  0  0
   -1.5350   13.8470   -4.9640 C   0  0  0  0  0  0  0  0  0  0  0  0
    0.9470   10.4290   -9.1110 C   0  0  0  0  0  0  0  0  0  0  0  0
   -1.4660    9.0900   -7.6770 C   0  0  0  0  0  0  0  0  0  0  0  0
   -2.9810    9.6510   -5.7040 C   0  0  0  0  0  0  0  0  0  0  0  0
   -1.5560   16.5950   -5.3780 C   0  0  0  0  0  0  0  0  0  0  0  0
   -2.7360   14.4950   -5.1530 C   0  0  0  0  0  0  0  0  0  0  0  0
    0.8590   16.7080   -5.1960 C   0  0  0  0  0  0  0  0  0  0  0  0
    1.6420    9.2600   -9.0990 F   0  0  0  0  0  0  0  0  0  0  0  0
   -0.0940   10.2080   -9.9450 F   0  0  0  0  0  0  0  0  0  0  0  0
    1.6820   11.3230   -9.7950 F   0  0  0  0  0  0  0  0  0  0  0  0
   -2.4290    8.5380   -6.6110 C   0  0  0  0  0  0  0  0  0  0  0  0
   -2.7470   15.8600   -5.3610 C   0  0  0  0  0  0  0  0  0  0  0  0
   -1.5850   17.9640   -5.6020 C   0  0  0  0  0  0  0  0  0  0  0  0
    0.8140   18.0790   -5.4200 C   0  0  0  0  0  0  0  0  0  0  0  0
   -0.4150   18.6960   -5.6270 C   0  0  0  0  0  0  0  0  0  0  0  0
  1  2  1  0
  2  3  2  0
  2  4  1  0
  4  5  1  6
  4  6  1  0
  6  7  1  0
  6  8  1  0
  5  9  1  0
  7 10  2  0
  8 11  2  0
 10 11  1  0
  8 12  1  0
  9 13  1  0
  9 14  2  0
 10 15  1  0
 11 16  1  0
 12 17  1  0
 13 18  2  0
 14 19  1  0
 13 20  1  0
 15 21  1  0
 15 22  1  0
 15 23  1  0
 16 24  1  0
 17 24  1  0
 18 25  1  0
 19 25  2  0
 18 26  1  0
 20 27  2  0
 26 28  2  0
 27 28  1  0
M  END
