mac-x0182-mac-x0373
     RDKit          3D

 28 31  0  0  0  0  0  0  0  0999 V2000
    1.4420   11.4390   -7.9740 O   0  0  0  0  0  0  0  0  0  0  0  0
    0.9320   11.2630   -6.9380 C   0  0  0  0  0  0  0  0  0  0  0  0
    1.2530   11.8360   -5.7430 N   0  0  0  0  0  0  0  0  0  0  0  0
   -0.1750   10.3210   -6.8680 C   0  0  0  0  0  0  0  0  0  0  0  0
    0.0540   11.4950   -4.6500 S   0  0  2  0  0  0  0  0  0  0  0  0
   -0.7860   10.3160   -5.6450 C   0  0  0  0  0  0  0  0  0  0  0  0
   -0.5870    9.5060   -7.9030 C   0  0  0  0  0  0  0  0  0  0  0  0
   -0.5900   12.8350   -4.7300 N   0  0  0  0  0  0  0  0  0  0  0  0
    0.5430   10.8220   -3.4760 O   0  0  0  0  0  0  0  0  0  0  0  0
   -1.8630    9.4850   -5.3720 C   0  0  0  0  0  0  0  0  0  0  0  0
   -1.6650    8.6600   -7.6680 C   0  0  0  0  0  0  0  0  0  0  0  0
   -2.3010    8.6460   -6.4130 C   0  0  0  0  0  0  0  0  0  0  0  0
   -1.8690   12.5070   -4.4160 C   0  0  0  0  0  0  0  0  0  0  0  0
   -2.5320   11.8350   -5.4230 C   0  0  0  0  0  0  0  0  0  0  0  0
   -2.3920   12.8060   -3.1890 C   0  0  0  0  0  0  0  0  0  0  0  0
   -1.6500   13.5470   -2.0730 C   0  0  1  0  0  0  0  0  0  0  0  0
   -3.8100   11.4070   -5.2020 C   0  0  0  0  0  0  0  0  0  0  0  0
   -3.6980   12.3650   -2.9820 C   0  0  0  0  0  0  0  0  0  0  0  0
   -0.2240   14.1030   -2.2120 C   0  0  0  0  0  0  0  0  0  0  0  0
   -4.3930   11.6710   -3.9770 C   0  0  0  0  0  0  0  0  0  0  0  0
   -2.5910   14.3940   -1.2770 C   0  0  0  0  0  0  0  0  0  0  0  0
    0.7200   13.2420   -1.7790 O   0  0  0  0  0  0  0  0  0  0  0  0
    0.1120   15.2020   -2.6370 O   0  0  0  0  0  0  0  0  0  0  0  0
   -3.6660   15.0810   -1.8680 C   0  0  0  0  0  0  0  0  0  0  0  0
   -2.3850   14.4670    0.0960 C   0  0  0  0  0  0  0  0  0  0  0  0
   -4.5190   15.8160   -1.0690 C   0  0  0  0  0  0  0  0  0  0  0  0
   -3.2370   15.2020    0.8810 C   0  0  0  0  0  0  0  0  0  0  0  0
   -4.2960   15.8670    0.3000 C   0  0  0  0  0  0  0  0  0  0  0  0
  1  2  2  0
  2  3  1  0
  2  4  1  0
  5  3  1  6
  4  6  2  0
  5  6  1  0
  4  7  1  0
  5  8  2  0
  5  9  2  0
  6 10  1  0
  7 11  2  0
 10 12  2  0
 11 12  1  0
  8 13  1  0
 13 14  2  0
 13 15  1  0
 15 16  1  0
 14 17  1  0
 15 18  2  0
 16 19  1  6
 17 20  2  0
 18 20  1  0
 16 21  1  0
 19 22  1  0
 19 23  2  0
 21 24  2  0
 21 25  1  0
 24 26  1  0
 25 27  2  0
 26 28  2  0
 27 28  1  0
M  END
