mac-x0437-mac-x0231
     RDKit          3D

 25 28  0  0  0  0  0  0  0  0999 V2000
    2.1720   12.9490   -2.3470 O   0  0  0  0  0  0  0  0  0  0  0  0
    1.3360   12.2640   -3.1180 C   0  0  0  0  0  0  0  0  0  0  0  0
    1.0000   11.1360   -2.8000 O   0  0  0  0  0  0  0  0  0  0  0  0
    0.8110   12.9450   -4.3430 C   0  0  2  0  0  0  0  0  0  0  0  0
    0.8320   12.2850   -5.6730 C   0  0  0  0  0  0  0  0  0  0  0  0
    0.7360   14.4290   -4.4860 C   0  0  1  0  0  0  0  0  0  0  0  0
   -0.2300   11.3660   -5.8700 N   0  0  0  0  0  0  0  0  0  0  0  0
   -0.6620   14.8500   -4.0520 C   0  0  1  0  0  0  0  0  0  0  0  0
    1.7470   15.3460   -4.0070 N   0  0  0  0  0  0  0  0  0  0  0  0
   -1.3930   11.2340   -5.1540 C   0  0  0  0  0  0  0  0  0  0  0  0
   -0.2190   10.4570   -6.8390 C   0  0  0  0  0  0  0  0  0  0  0  0
   -1.0150   16.1770   -4.6980 C   0  0  1  0  0  0  0  0  0  0  0  0
    1.4310   16.6290   -4.4770 N   0  0  0  0  0  0  0  0  0  0  0  0
   -1.6680   13.7400   -4.3310 C   0  0  0  0  0  0  0  0  0  0  0  0
   -2.1350   10.2630   -5.6250 N   0  0  0  0  0  0  0  0  0  0  0  0
   -1.4070    9.7680   -6.6780 C   0  0  0  0  0  0  0  0  0  0  0  0
    0.7200   10.1880   -7.8220 C   0  0  0  0  0  0  0  0  0  0  0  0
    0.2270   16.9840   -5.0810 C   0  0  0  0  0  0  0  0  0  0  0  0
   -2.1750   16.1850   -5.6590 C   0  0  0  0  0  0  0  0  0  0  0  0
   -2.7090   13.8750   -5.1580 C   0  0  0  0  0  0  0  0  0  0  0  0
    0.1830   17.9230   -5.8630 O   0  0  0  0  0  0  0  0  0  0  0  0
   -1.6880    8.7250   -7.5550 C   0  0  0  0  0  0  0  0  0  0  0  0
    0.4310    9.1490   -8.6870 C   0  0  0  0  0  0  0  0  0  0  0  0
   -2.9530   15.1070   -5.8550 C   0  0  0  0  0  0  0  0  0  0  0  0
   -0.7550    8.4230   -8.5600 C   0  0  0  0  0  0  0  0  0  0  0  0
  1  2  1  0
  2  3  2  0
  2  4  1  0
  4  5  1  6
  4  6  1  0
  5  7  1  0
  6  8  1  0
  6  9  1  1
  7 10  1  0
  7 11  1  0
  8 12  1  0
  9 13  1  0
  8 14  1  6
 10 15  2  0
 11 16  2  0
 15 16  1  0
 11 17  1  0
 12 18  1  0
 13 18  1  0
 12 19  1  6
 14 20  2  0
 18 21  2  0
 16 22  1  0
 17 23  2  0
 19 24  2  0
 20 24  1  0
 22 25  2  0
 23 25  1  0
M  END
