mac-x0455-mac-x0142
     RDKit          3D

 29 33  0  0  0  0  0  0  0  0999 V2000
   -2.2240   12.1300   -2.0010 C   0  0  0  0  0  0  0  0  0  0  0  0
   -1.1340   12.5380   -2.9840 C   0  0  1  0  0  0  0  0  0  0  0  0
   -1.2310   13.8690   -3.2590 O   0  0  0  0  0  0  0  0  0  0  0  0
    0.2370   12.4780   -2.2250 C   0  0  0  0  0  0  0  0  0  0  0  0
   -1.0920   11.8290   -4.3170 C   0  0  0  0  0  0  0  0  0  0  0  0
    1.1070   13.3470   -2.2600 O   0  0  0  0  0  0  0  0  0  0  0  0
    0.4520   11.3780   -1.4870 O   0  0  0  0  0  0  0  0  0  0  0  0
   -2.1310   11.0120   -4.7500 C   0  0  0  0  0  0  0  0  0  0  0  0
    0.0280   12.0030   -5.1530 C   0  0  0  0  0  0  0  0  0  0  0  0
   -0.1040   14.5600   -2.9280 C   0  0  1  0  0  0  0  0  0  0  0  0
   -2.0570   10.3780   -5.9860 C   0  0  0  0  0  0  0  0  0  0  0  0
    0.1030   11.3730   -6.3870 C   0  0  0  0  0  0  0  0  0  0  0  0
    0.6930   14.5500   -4.1760 C   0  0  0  0  0  0  0  0  0  0  0  0
   -0.7030   15.8020   -2.5630 N   0  0  0  0  0  0  0  0  0  0  0  0
   -0.9410   10.5590   -6.8010 C   0  0  0  0  0  0  0  0  0  0  0  0
    2.0880   15.0600   -4.1050 C   0  0  0  0  0  0  0  0  0  0  0  0
    1.8780   13.6120   -4.4030 C   0  0  0  0  0  0  0  0  0  0  0  0
   -0.1670   14.9090   -5.3400 C   0  0  0  0  0  0  0  0  0  0  0  0
   -1.6800   16.1310   -3.6390 C   0  0  0  0  0  0  0  0  0  0  0  0
   -1.1210   15.6070   -1.2380 C   0  0  0  0  0  0  0  0  0  0  0  0
   -1.6050   15.1780   -4.8580 C   0  0  0  0  0  0  0  0  0  0  0  0
   -0.1630   15.3840   -0.2690 N   0  0  0  0  0  0  0  0  0  0  0  0
   -2.3870   15.5790   -0.7860 C   0  0  0  0  0  0  0  0  0  0  0  0
   -0.4700   15.0530    1.0160 C   0  0  0  0  0  0  0  0  0  0  0  0
   -2.6490   15.3110    0.6540 C   0  0  0  0  0  0  0  0  0  0  0  0
   -3.6970   15.7420   -1.3250 C   0  0  0  0  0  0  0  0  0  0  0  0
   -1.6490   15.0060    1.5360 N   0  0  0  0  0  0  0  0  0  0  0  0
   -3.9150   15.3810    0.9430 N   0  0  0  0  0  0  0  0  0  0  0  0
   -4.5230   15.6370   -0.2760 C   0  0  0  0  0  0  0  0  0  0  0  0
  2  1  1  1
  2  3  1  0
  2  4  1  0
  2  5  1  0
  4  6  2  0
  4  7  1  0
  5  8  2  0
  5  9  1  0
 10  3  1  6
  8 11  1  0
  9 12  2  0
 10 13  1  0
 10 14  1  0
 11 15  2  0
 12 15  1  0
 13 16  1  0
 13 17  1  0
 16 17  1  0
 13 18  1  0
 14 19  1  0
 14 20  1  0
 18 21  1  0
 19 21  1  0
 20 22  1  0
 20 23  2  0
 22 24  1  0
 23 25  1  0
 23 26  1  0
 24 27  2  0
 25 27  1  0
 25 28  2  0
 26 29  2  0
 28 29  1  0
M  END
