mac-x0392-mac-x0345
     RDKit          3D

 21 22  0  0  0  0  0  0  0  0999 V2000
    0.5410   14.8600   -0.2100 N   0  0  0  0  0  0  0  0  0  0  0  0
   -0.8280   14.5700   -0.1230 C   0  0  0  0  0  0  0  0  0  0  0  0
   -1.4280   14.4130    1.1190 C   0  0  0  0  0  0  0  0  0  0  0  0
   -1.6620   14.4260   -1.2480 C   0  0  0  0  0  0  0  0  0  0  0  0
   -1.1950   14.5720   -2.6560 C   0  0  0  0  0  0  0  0  0  0  0  0
   -3.0090   14.1320   -1.0700 C   0  0  0  0  0  0  0  0  0  0  0  0
   -2.7310   14.1330    1.3090 N   0  0  0  0  0  0  0  0  0  0  0  0
   -1.8980   14.3370   -3.7270 N   0  0  0  0  0  0  0  0  0  0  0  0
    0.0850   14.9890   -2.6980 O   0  0  0  0  0  0  0  0  0  0  0  0
   -3.4890   13.9950    0.2140 C   0  0  0  0  0  0  0  0  0  0  0  0
   -3.3020   13.8620   -3.7350 C   0  0  0  0  0  0  0  0  0  0  0  0
   -4.3190   14.8430   -4.3770 C   0  0  0  0  0  0  0  0  0  0  0  0
   -5.6490   14.8500   -3.6800 N   0  0  0  0  0  0  0  0  0  0  0  0
   -5.5430   15.0050   -2.2920 C   0  0  0  0  0  0  0  0  0  0  0  0
   -4.3370   15.5010   -1.8470 C   0  0  0  0  0  0  0  0  0  0  0  0
   -6.5430   14.6790   -1.4480 N   0  0  0  0  0  0  0  0  0  0  0  0
   -6.3320   14.8300   -0.1140 C   0  0  0  0  0  0  0  0  0  0  0  0
   -4.1300   15.6500   -0.5030 C   0  0  0  0  0  0  0  0  0  0  0  0
   -7.4760   14.4450    0.7780 C   0  0  0  0  0  0  0  0  0  0  0  0
   -5.1150   15.3090    0.3690 C   0  0  0  0  0  0  0  0  0  0  0  0
   -4.6240   15.5500    2.1510 Br  0  0  0  0  0  0  0  0  0  0  0  0
  1  2  1  0
  2  3  2  0
  2  4  1  0
  4  5  1  0
  4  6  2  0
  3  7  1  0
  5  8  2  3
  5  9  1  0
  6 10  1  0
  7 10  2  0
  8 11  1  0
 11 12  1  0
 12 13  1  0
 13 14  1  0
 14 15  2  0
 14 16  1  0
 16 17  2  0
 15 18  1  0
 17 19  1  0
 17 20  1  0
 18 20  2  0
 20 21  1  0
M  END
