mac-x0568-diamond-x0722_0_A
     RDKit          3D

 19 20  0  0  0  0  0  0  0  0999 V2000
   -9.2680   14.8430    1.7880 C   0  0  0  0  0  0  0  0  0  0  0  0
   -7.9670   14.8630    1.0730 C   0  0  0  0  0  0  0  0  0  0  0  0
   -6.8200   14.4730    1.7370 C   0  0  0  0  0  0  0  0  0  0  0  0
   -7.9760   15.2720   -0.2170 N   0  0  0  0  0  0  0  0  0  0  0  0
   -6.7990   15.2890   -0.8650 C   0  0  0  0  0  0  0  0  0  0  0  0
   -5.6310   14.4950    1.0470 C   0  0  0  0  0  0  0  0  0  0  0  0
   -5.6130   14.9100   -0.2830 C   0  0  0  0  0  0  0  0  0  0  0  0
   -4.3950   14.9050   -1.0970 C   0  0  2  0  0  0  0  0  0  0  0  0
   -4.2360   15.9070   -2.1010 O   0  0  0  0  0  0  0  0  0  0  0  0
   -4.9590   13.6430   -1.7470 C   0  0  0  0  0  0  0  0  0  0  0  0
   -3.2690   14.7930   -0.1400 C   0  0  0  0  0  0  0  0  0  0  0  0
   -5.6980   13.7340   -2.7230 O   0  0  0  0  0  0  0  0  0  0  0  0
   -4.7360   12.4350   -1.1570 N   0  0  0  0  0  0  0  0  0  0  0  0
   -3.3290   15.1530    1.2260 C   0  0  0  0  0  0  0  0  0  0  0  0
   -1.9830   14.3480   -0.3090 C   0  0  0  0  0  0  0  0  0  0  0  0
   -4.4850   15.7000    1.9480 C   0  0  0  0  0  0  0  0  0  0  0  0
   -2.1930   14.9440    1.8440 N   0  0  0  0  0  0  0  0  0  0  0  0
   -1.4000   14.4660    0.9060 N   0  0  0  0  0  0  0  0  0  0  0  0
   -0.0670   14.1360    1.2580 C   0  0  0  0  0  0  0  0  0  0  0  0
  1  2  1  0
  2  3  2  0
  2  4  1  0
  4  5  2  0
  3  6  1  0
  5  7  1  0
  6  7  2  0
  7  8  1  0
  8  9  1  6
  8 10  1  0
  8 11  1  0
 10 12  2  0
 10 13  1  0
 11 14  1  0
 11 15  2  0
 14 16  1  0
 14 17  2  0
 15 18  1  0
 17 18  1  0
 18 19  1  0
M  END
