mac-x0283-diamond-x0626_0_A
     RDKit          3D

 20 22  0  0  0  0  0  0  0  0999 V2000
   -6.9770   14.7550    1.6020 N   0  0  0  0  0  0  0  0  0  0  0  0
   -8.2500   14.3030    2.1290 C   0  0  0  0  0  0  0  0  0  0  0  0
   -5.9270   13.8950    1.6380 C   0  0  0  0  0  0  0  0  0  0  0  0
   -6.9330   14.8870    0.2760 C   0  0  0  0  0  0  0  0  0  0  0  0
   -4.6970   14.2140    2.0890 N   0  0  0  0  0  0  0  0  0  0  0  0
   -6.0580   12.8000    1.1030 O   0  0  0  0  0  0  0  0  0  0  0  0
   -7.9620   14.8000   -0.5560 N   0  0  0  0  0  0  0  0  0  0  0  0
   -5.7090   15.0940   -0.3670 C   0  0  0  0  0  0  0  0  0  0  0  0
   -7.3860   14.9270   -1.8000 O   0  0  0  0  0  0  0  0  0  0  0  0
   -6.0410   15.0900   -1.6790 C   0  0  0  0  0  0  0  0  0  0  0  0
   -4.3710   15.2670    0.0020 C   0  0  0  0  0  0  0  0  0  0  0  0
   -3.5050   14.2060    1.3920 C   0  0  0  0  0  0  0  0  0  0  0  0
   -5.1180   15.2250   -2.6980 C   0  0  0  0  0  0  0  0  0  0  0  0
   -3.4210   15.4050   -0.9970 C   0  0  0  0  0  0  0  0  0  0  0  0
   -2.3290   14.6580    1.7500 N   0  0  0  0  0  0  0  0  0  0  0  0
   -3.5690   13.4990   -0.1730 S   0  0  0  0  0  0  0  0  0  0  0  0
   -3.7850   15.3840   -2.3290 C   0  0  0  0  0  0  0  0  0  0  0  0
   -1.9010   13.8370   -0.3830 C   0  0  0  0  0  0  0  0  0  0  0  0
   -1.4100   14.4530    0.7470 C   0  0  0  0  0  0  0  0  0  0  0  0
   -0.0350   14.8940    0.9710 C   0  0  0  0  0  0  0  0  0  0  0  0
  1  2  1  0
  1  3  1  0
  1  4  1  0
  3  5  1  0
  3  6  2  0
  4  7  2  0
  4  8  1  0
  7  9  1  0
  8 10  2  0
  9 10  1  0
  8 11  1  0
  5 12  1  0
 10 13  1  0
 11 14  2  0
 12 15  2  0
 12 16  1  0
 13 17  2  0
 14 17  1  0
 16 18  1  0
 15 19  1  0
 18 19  2  0
 19 20  1  0
M  END
