mac-x0564-diamond-x0685_0_A
     RDKit          3D

 19 21  0  0  0  0  0  0  0  0999 V2000
    0.7160   13.9090   -0.6670 O   0  0  0  0  0  0  0  0  0  0  0  0
   -0.0280   14.1490   -1.5940 C   0  0  0  0  0  0  0  0  0  0  0  0
    0.4420   14.1820   -2.9180 N   0  0  0  0  0  0  0  0  0  0  0  0
   -1.4480   14.4120   -1.4580 C   0  0  0  0  0  0  0  0  0  0  0  0
   -2.2350   14.6330   -2.5280 C   0  0  0  0  0  0  0  0  0  0  0  0
   -0.3900   14.4030   -3.8800 C   0  0  0  0  0  0  0  0  0  0  0  0
   -2.2110   14.4800   -0.2860 O   0  0  0  0  0  0  0  0  0  0  0  0
   -1.7400   14.6200   -3.7940 N   0  0  0  0  0  0  0  0  0  0  0  0
   -3.5320   14.7550   -0.6670 C   0  0  0  0  0  0  0  0  0  0  0  0
   -3.5200   14.8450   -2.0490 C   0  0  0  0  0  0  0  0  0  0  0  0
   -4.6520   15.1010   -2.7150 C   0  0  0  0  0  0  0  0  0  0  0  0
   -4.7610   14.9290    0.1100 C   0  0  0  0  0  0  0  0  0  0  0  0
   -4.9150   14.8360    1.5290 N   0  0  0  0  0  0  0  0  0  0  0  0
   -4.3370   15.1130   -4.0640 C   0  0  0  0  0  0  0  0  0  0  0  0
   -5.8630   15.2990   -2.0750 C   0  0  0  0  0  0  0  0  0  0  0  0
   -5.9020   15.2110   -0.6840 C   0  0  0  0  0  0  0  0  0  0  0  0
   -6.2480   14.7320    2.1870 C   0  0  0  0  0  0  0  0  0  0  0  0
   -3.9250   15.1260   -5.1340 N   0  0  0  0  0  0  0  0  0  0  0  0
   -6.6470   13.2980    2.5230 C   0  0  0  0  0  0  0  0  0  0  0  0
  1  2  2  0
  2  3  1  0
  2  4  1  0
  4  5  2  0
  3  6  2  0
  4  7  1  0
  5  8  1  0
  6  8  1  0
  7  9  1  0
  5 10  1  0
  9 10  2  0
 10 11  1  0
  9 12  1  0
 12 13  1  0
 11 14  1  0
 11 15  2  0
 12 16  2  0
 15 16  1  0
 13 17  1  0
 14 18  3  0
 17 19  1  0
M  END
