mac-x0326-diamond-x0711_0_A
     RDKit          3D

 23 25  0  0  0  0  0  0  0  0999 V2000
   -5.8310   15.4800   -2.2900 Cl  0  0  0  0  0  0  0  0  0  0  0  0
   -4.3290   14.7370   -1.6730 C   0  0  1  0  0  0  0  0  0  0  0  0
   -2.9450   14.9560   -2.2390 C   0  0  0  0  0  0  0  0  0  0  0  0
   -4.4910   14.6380   -0.1890 C   0  0  2  0  0  0  0  0  0  0  0  0
   -2.5250   15.3020   -3.5110 N   0  0  0  0  0  0  0  0  0  0  0  0
   -5.8860   14.7060    0.3530 C   0  0  0  0  0  0  0  0  0  0  0  0
   -1.7970   14.7700   -1.3360 C   0  0  1  0  0  0  0  0  0  0  0  0
   -3.4030   15.3020    0.5290 C   0  0  0  0  0  0  0  0  0  0  0  0
   -1.3920   14.3540   -3.9240 S   0  0  0  0  0  0  0  0  0  0  0  0
   -6.2140   14.7520    1.7310 N   0  0  0  0  0  0  0  0  0  0  0  0
   -6.8850   14.7130   -0.3920 O   0  0  0  0  0  0  0  0  0  0  0  0
   -0.3450   14.6580   -1.8400 C   0  0  1  0  0  0  0  0  0  0  0  0
   -2.0880   14.7600    0.0860 C   0  0  2  0  0  0  0  0  0  0  0  0
   -0.0590   14.9780   -3.3650 C   0  0  1  0  0  0  0  0  0  0  0  0
   -1.9090   13.9080   -5.4190 C   0  0  0  0  0  0  0  0  0  0  0  0
   -2.0440   13.5700   -2.5360 O   0  0  0  0  0  0  0  0  0  0  0  0
   -1.0200   15.1190    0.9740 C   0  0  0  0  0  0  0  0  0  0  0  0
    0.6590   15.0510   -0.8940 C   0  0  0  0  0  0  0  0  0  0  0  0
    1.2420   14.2480   -3.7150 C   0  0  0  0  0  0  0  0  0  0  0  0
    0.2650   15.2550    0.4740 S   0  0  0  0  0  0  0  0  0  0  0  0
    1.2660   12.8170   -3.2640 C   0  0  0  0  0  0  0  0  0  0  0  0
    0.4870   11.8790   -3.9430 O   0  0  0  0  0  0  0  0  0  0  0  0
    1.9450   12.4040   -2.3120 O   0  0  0  0  0  0  0  0  0  0  0  0
  2  1  1  1
  2  3  1  0
  2  4  1  0
  3  5  1  0
  4  6  1  1
  7  3  1  1
  4  8  1  0
  5  9  1  0
  6 10  1  0
  6 11  2  0
  7 12  1  0
  7 13  1  0
 13  8  1  6
  9 14  1  0
 12 14  1  0
  9 15  1  0
  9 16  2  0
 13 17  1  0
 12 18  1  1
 14 19  1  6
 17 20  2  0
 18 20  2  0
 19 21  1  0
 21 22  1  0
 21 23  2  0
M  END
