mac-x0564-diamond-x0962_0_A
     RDKit          3D

 21 24  0  0  0  0  0  0  0  0999 V2000
    0.8990   14.2770   -1.5290 O   0  0  0  0  0  0  0  0  0  0  0  0
    0.1740   14.3940   -2.5100 C   0  0  0  0  0  0  0  0  0  0  0  0
    0.5970   14.3030   -3.8080 N   0  0  0  0  0  0  0  0  0  0  0  0
   -1.2490   14.6260   -2.4010 C   0  0  0  0  0  0  0  0  0  0  0  0
   -2.0790   14.6620   -3.6060 C   0  0  0  0  0  0  0  0  0  0  0  0
   -0.2230   14.3750   -4.8150 C   0  0  0  0  0  0  0  0  0  0  0  0
   -2.0800   14.8040   -1.4290 C   0  0  0  0  0  0  0  0  0  0  0  0
   -2.0710   14.8510   -0.1350 C   0  0  0  0  0  0  0  0  0  0  0  0
   -1.5970   14.5440   -4.7820 N   0  0  0  0  0  0  0  0  0  0  0  0
   -3.4130   14.9560   -1.8450 C   0  0  0  0  0  0  0  0  0  0  0  0
   -3.4790   14.8380   -3.1810 C   0  0  0  0  0  0  0  0  0  0  0  0
   -2.7020   14.8570    0.7860 C   0  0  0  0  0  0  0  0  0  0  0  0
   -4.6940   14.8950   -3.8200 C   0  0  0  0  0  0  0  0  0  0  0  0
   -4.5170   15.1740   -1.0430 C   0  0  0  0  0  0  0  0  0  0  0  0
   -5.8420   15.1000   -3.0210 C   0  0  0  0  0  0  0  0  0  0  0  0
   -5.7530   15.2490   -1.6400 C   0  0  0  0  0  0  0  0  0  0  0  0
   -3.8710   14.8550    1.4970 C   0  0  0  0  0  0  0  0  0  0  0  0
   -4.0640   15.2070    2.7700 N   0  0  0  0  0  0  0  0  0  0  0  0
   -5.1070   14.4850    1.0130 C   0  0  0  0  0  0  0  0  0  0  0  0
   -5.3850   15.0490    3.0270 C   0  0  0  0  0  0  0  0  0  0  0  0
   -6.0500   14.6140    1.9820 N   0  0  0  0  0  0  0  0  0  0  0  0
  1  2  2  0
  2  3  1  0
  2  4  1  0
  4  5  1  0
  3  6  2  0
  4  7  2  0
  7  8  1  0
  5  9  2  0
  6  9  1  0
  7 10  1  0
  5 11  1  0
 10 11  2  0
  8 12  3  0
 11 13  1  0
 10 14  1  0
 13 15  2  0
 14 16  2  0
 15 16  1  0
 12 17  1  0
 17 18  1  0
 17 19  2  0
 18 20  1  0
 19 21  1  0
 20 21  2  0
M  END
