mac-x0188-mac-x0328
     RDKit          3D

 18 20  0  0  0  0  0  0  0  0999 V2000
    1.4340   13.3770   -5.0680 C   0  0  0  0  0  0  0  0  0  0  0  0
    0.0660   13.7340   -4.6510 C   0  0  0  0  0  0  0  0  0  0  0  0
   -0.8960   13.7510   -5.6160 O   0  0  0  0  0  0  0  0  0  0  0  0
   -0.5150   14.0710   -3.4530 C   0  0  0  0  0  0  0  0  0  0  0  0
    0.0020   14.2120   -2.0830 C   0  0  0  0  0  0  0  0  0  0  0  0
   -2.1210   14.0960   -5.0590 N   0  0  0  0  0  0  0  0  0  0  0  0
   -1.8870   14.2840   -3.7590 C   0  0  0  0  0  0  0  0  0  0  0  0
    0.5010   15.5020   -1.7950 O   0  0  0  0  0  0  0  0  0  0  0  0
    1.0480   13.2810   -1.8060 O   0  0  0  0  0  0  0  0  0  0  0  0
   -1.2140   13.8560   -1.1560 C   0  0  2  0  0  0  0  0  0  0  0  0
   -2.8990   14.6460   -2.7660 C   0  0  0  0  0  0  0  0  0  0  0  0
   -1.4100   12.4900   -1.5180 O   0  0  0  0  0  0  0  0  0  0  0  0
   -4.1440   15.1580   -3.0980 C   0  0  0  0  0  0  0  0  0  0  0  0
   -2.5730   14.4360   -1.4270 C   0  0  0  0  0  0  0  0  0  0  0  0
   -5.0680   15.4510   -2.0960 C   0  0  0  0  0  0  0  0  0  0  0  0
   -3.4990   14.7350   -0.4030 C   0  0  0  0  0  0  0  0  0  0  0  0
   -4.7500   15.2370   -0.7670 C   0  0  0  0  0  0  0  0  0  0  0  0
   -5.7230   15.5290    0.1350 O   0  0  0  0  0  0  0  0  0  0  0  0
  1  2  1  0
  2  3  1  0
  2  4  2  0
  4  5  1  0
  3  6  1  0
  4  7  1  0
  6  7  2  0
  5  8  1  0
  5  9  1  0
  5 10  1  0
  7 11  1  0
 10 12  1  6
 11 13  2  0
 10 14  1  0
 11 14  1  0
 13 15  1  0
 14 16  2  0
 15 17  2  0
 16 17  1  0
 17 18  1  0
M  END
