mac-x0178-mac-x0555
     RDKit          3D

 26 28  0  0  0  0  0  0  0  0999 V2000
   -0.7600   18.3970   -5.9350 N   0  0  0  0  0  0  0  0  0  0  0  0
   -1.7680   17.0760   -5.7360 S   0  0  2  0  0  0  0  0  0  0  0  0
   -2.5090   16.9100   -6.9450 O   0  0  0  0  0  0  0  0  0  0  0  0
   -2.4920   17.2490   -4.5020 N   0  0  0  0  0  0  0  0  0  0  0  0
   -0.9710   15.7120   -4.9850 C   0  0  0  0  0  0  0  0  0  0  0  0
   -3.2520   15.9900   -4.1770 C   0  0  0  0  0  0  0  0  0  0  0  0
    0.1200   15.9720   -4.1480 C   0  0  0  0  0  0  0  0  0  0  0  0
   -1.4550   14.4230   -5.1860 C   0  0  0  0  0  0  0  0  0  0  0  0
   -2.6220   15.0100   -3.2280 C   0  0  0  0  0  0  0  0  0  0  0  0
    0.7270   14.9170   -3.4800 C   0  0  0  0  0  0  0  0  0  0  0  0
   -0.8440   13.3680   -4.5150 C   0  0  0  0  0  0  0  0  0  0  0  0
    0.2370   13.6150   -3.6560 C   0  0  0  0  0  0  0  0  0  0  0  0
   -3.4680   14.9310   -1.9860 C   0  0  0  0  0  0  0  0  0  0  0  0
    0.8850   12.5240   -2.9090 C   0  0  0  0  0  0  0  0  0  0  0  0
   -4.8830   14.8310   -2.0140 C   0  0  0  0  0  0  0  0  0  0  0  0
   -2.8050   14.9530   -0.7750 C   0  0  0  0  0  0  0  0  0  0  0  0
    1.6720   12.6680   -1.9990 O   0  0  0  0  0  0  0  0  0  0  0  0
    0.4910   11.3100   -3.3320 O   0  0  0  0  0  0  0  0  0  0  0  0
   -5.6210   14.7420   -0.8320 C   0  0  0  0  0  0  0  0  0  0  0  0
   -3.5120   14.8740    0.3990 C   0  0  0  0  0  0  0  0  0  0  0  0
   -4.8990   14.7640    0.3780 C   0  0  0  0  0  0  0  0  0  0  0  0
   -6.9680   14.6330   -0.8550 N   0  0  0  0  0  0  0  0  0  0  0  0
   -5.5990   14.6680    1.5690 C   0  0  0  0  0  0  0  0  0  0  0  0
   -7.6090   14.5340    0.3440 C   0  0  0  0  0  0  0  0  0  0  0  0
   -6.9700   14.5450    1.5840 C   0  0  0  0  0  0  0  0  0  0  0  0
   -7.6100   14.4390    2.8150 N   0  0  0  0  0  0  0  0  0  0  0  0
  2  1  1  6
  2  3  2  0
  2  4  2  0
  2  5  1  0
  4  6  1  0
  5  7  2  0
  5  8  1  0
  6  9  1  0
  7 10  1  0
  8 11  2  0
 10 12  2  0
 11 12  1  0
  9 13  1  0
 12 14  1  0
 13 15  2  0
 13 16  1  0
 14 17  2  0
 14 18  1  0
 15 19  1  0
 16 20  2  0
 19 21  2  0
 20 21  1  0
 19 22  1  0
 21 23  1  0
 22 24  2  0
 23 25  2  0
 24 25  1  0
 25 26  1  0
M  END
