mac-x0204-mac-x0180
     RDKit          3D

 21 22  0  0  0  0  0  0  0  0999 V2000
   -0.4690   12.8510   -2.4270 O   0  0  0  0  0  0  0  0  0  0  0  0
   -0.4400   14.2770   -2.5840 S   0  0  0  0  0  0  0  0  0  0  0  0
   -0.3330   15.7630   -2.8960 O   0  0  0  0  0  0  0  0  0  0  0  0
    0.9870   14.4030   -2.5090 O   0  0  0  0  0  0  0  0  0  0  0  0
   -1.4350   14.2450   -4.0460 C   0  0  0  0  0  0  0  0  0  0  0  0
   -1.7750   14.5680   -1.4270 C   0  0  0  0  0  0  0  0  0  0  0  0
   -1.7840   15.3830   -4.6740 C   0  0  0  0  0  0  0  0  0  0  0  0
   -1.8400   13.0130   -4.4630 C   0  0  0  0  0  0  0  0  0  0  0  0
   -1.7100   14.5700   -0.0770 C   0  0  0  0  0  0  0  0  0  0  0  0
   -3.0010   14.7960   -2.0360 C   0  0  0  0  0  0  0  0  0  0  0  0
   -2.5960   15.2950   -5.7870 C   0  0  0  0  0  0  0  0  0  0  0  0
   -2.6240   12.9360   -5.5430 N   0  0  0  0  0  0  0  0  0  0  0  0
   -2.9000   14.7890    0.6440 C   0  0  0  0  0  0  0  0  0  0  0  0
   -4.1320   15.0060   -1.3160 C   0  0  0  0  0  0  0  0  0  0  0  0
   -2.9680   16.4510   -6.4530 O   0  0  0  0  0  0  0  0  0  0  0  0
   -3.0040   14.0440   -6.1980 C   0  0  0  0  0  0  0  0  0  0  0  0
   -4.1370   15.0050    0.0810 C   0  0  0  0  0  0  0  0  0  0  0  0
   -5.3490   15.2110    0.7430 N   0  0  0  0  0  0  0  0  0  0  0  0
   -6.6070   14.7970    0.2560 C   0  0  0  0  0  0  0  0  0  0  0  0
   -7.7200   14.4580    1.2380 C   0  0  0  0  0  0  0  0  0  0  0  0
   -6.9620   14.6770   -0.9420 O   0  0  0  0  0  0  0  0  0  0  0  0
  1  2  1  0
  2  3  2  0
  2  4  1  0
  2  5  1  0
  2  6  1  0
  5  7  2  0
  5  8  1  0
  6  9  2  0
  6 10  1  0
  7 11  1  0
  8 12  2  0
  9 13  1  0
 10 14  2  0
 11 15  1  0
 11 16  2  0
 12 16  1  0
 13 17  2  0
 14 17  1  0
 17 18  1  0
 18 19  1  0
 19 20  1  0
 19 21  2  0
M  END
