mac-x0385-diamond-x0290_0_A
     RDKit          3D

 14 15  0  0  0  0  0  0  0  0999 V2000
   -5.3050   14.9590   -0.4770 C   0  0  0  0  0  0  0  0  0  0  0  0
   -5.4500   14.3360    0.9260 C   0  0  2  0  0  0  0  0  0  0  0  0
   -6.8020   14.3130    1.6690 C   0  0  0  0  0  0  0  0  0  0  0  0
   -3.8010   15.2520   -0.4780 C   0  0  1  0  0  0  0  0  0  0  0  0
   -4.4200   15.0660    1.6640 N   0  0  0  0  0  0  0  0  0  0  0  0
   -3.3720   14.6340    0.8100 C   0  0  2  0  0  0  0  0  0  0  0  0
   -2.9170   14.7200   -1.5900 C   0  0  0  0  0  0  0  0  0  0  0  0
   -7.9360   13.9360    0.8230 N   0  0  0  0  0  0  0  0  0  0  0  0
   -2.1190   15.1240    1.1840 N   0  0  0  0  0  0  0  0  0  0  0  0
   -1.5030   14.9130   -1.1890 N   0  0  0  0  0  0  0  0  0  0  0  0
   -8.7910   15.0750    0.5200 C   0  0  0  0  0  0  0  0  0  0  0  0
   -0.6060   14.3110   -2.1680 C   0  0  0  0  0  0  0  0  0  0  0  0
   -1.1550   14.6150    0.2340 C   0  0  1  0  0  0  0  0  0  0  0  0
    0.1840   15.1970    0.6350 C   0  0  0  0  0  0  0  0  0  0  0  0
  1  2  1  0
  2  3  1  1
  4  1  1  6
  2  5  1  0
  4  6  1  0
  6  5  1  1
  4  7  1  0
  3  8  1  0
  6  9  1  0
  7 10  1  0
  8 11  1  0
 10 12  1  0
  9 13  1  0
 10 13  1  0
 13 14  1  1
M  END
