mac-x0584-mac-x0163
     RDKit          3D

 25 29  0  0  0  0  0  0  0  0999 V2000
   -4.0720   15.4850   -2.3820 Cl  0  0  0  0  0  0  0  0  0  0  0  0
   -2.8530   14.8600   -1.2170 C   0  0  2  0  0  0  0  0  0  0  0  0
   -2.9930   15.4560    0.1760 C   0  0  2  0  0  0  0  0  0  0  0  0
   -1.3370   15.2270   -1.4660 C   0  0  2  0  0  0  0  0  0  0  0  0
   -3.5690   13.6170   -0.7440 C   0  0  0  0  0  0  0  0  0  0  0  0
   -0.7430   15.5110   -2.7870 N   0  0  0  0  0  0  0  0  0  0  0  0
   -0.3660   14.6800   -0.5010 N   0  0  0  0  0  0  0  0  0  0  0  0
   -2.1620   14.7730    1.1080 N   0  0  0  0  0  0  0  0  0  0  0  0
   -4.4260   15.3750    0.3710 N   0  0  0  0  0  0  0  0  0  0  0  0
   -4.4950   14.0140    0.1760 C   0  0  0  0  0  0  0  0  0  0  0  0
   -2.8530   15.2330    2.2900 N   0  0  0  0  0  0  0  0  0  0  0  0
   -0.7440   14.4550   -3.7630 C   0  0  2  0  0  0  0  0  0  0  0  0
   -1.6040   16.5230   -3.4240 C   0  0  0  0  0  0  0  0  0  0  0  0
   -0.7270   15.0550    0.8640 C   0  0  0  0  0  0  0  0  0  0  0  0
    0.3620   13.3860   -3.9910 C   0  0  1  0  0  0  0  0  0  0  0  0
   -0.8910   15.1790   -5.0930 C   0  0  0  0  0  0  0  0  0  0  0  0
   -2.0100   16.0900   -4.8060 C   0  0  0  0  0  0  0  0  0  0  0  0
    1.7930   13.7090   -3.5100 C   0  0  0  0  0  0  0  0  0  0  0  0
    0.0160   12.0600   -3.3500 C   0  0  1  0  0  0  0  0  0  0  0  0
    0.1560   13.1460   -5.4860 C   0  0  0  0  0  0  0  0  0  0  0  0
    0.6440   12.1120   -1.9820 C   0  0  0  0  0  0  0  0  0  0  0  0
   -1.4780   11.7780   -3.5000 C   0  0  0  0  0  0  0  0  0  0  0  0
   -1.3760   13.1280   -5.6940 C   0  0  0  0  0  0  0  0  0  0  0  0
    1.8820   13.0280   -2.1470 C   0  0  0  0  0  0  0  0  0  0  0  0
   -2.1700   12.8210   -4.4050 C   0  0  0  0  0  0  0  0  0  0  0  0
  2  1  1  6
  2  3  1  0
  2  4  1  0
  2  5  1  0
  4  6  1  6
  4  7  1  0
  3  8  1  0
  3  9  1  1
  5 10  2  0
  9 10  1  0
  8 11  1  0
  6 12  1  0
  6 13  1  0
  7 14  1  0
  8 14  1  0
 12 15  1  0
 12 16  1  6
 13 17  1  0
 16 17  1  0
 15 18  1  6
 15 19  1  0
 15 20  1  0
 19 21  1  1
 19 22  1  0
 20 23  1  0
 18 24  1  0
 21 24  1  0
 22 25  1  0
 23 25  1  0
M  END
