mac-x0263-mac-x0396
     RDKit          3D

 17 18  0  0  0  0  0  0  0  0999 V2000
  -11.1650   14.1580    2.5670 O   0  0  0  0  0  0  0  0  0  0  0  0
  -10.4070   15.2660    2.6800 C   0  0  0  0  0  0  0  0  0  0  0  0
  -10.6750   16.0880    3.5440 O   0  0  0  0  0  0  0  0  0  0  0  0
   -9.3050   15.3290    1.6430 C   0  0  0  0  0  0  0  0  0  0  0  0
   -8.0080   14.5400    1.9650 C   0  0  0  0  0  0  0  0  0  0  0  0
   -6.9830   14.7200    0.8480 C   0  0  0  0  0  0  0  0  0  0  0  0
   -7.3310   14.7900   -0.4360 N   0  0  0  0  0  0  0  0  0  0  0  0
   -5.5570   14.8620    0.9070 N   0  0  0  0  0  0  0  0  0  0  0  0
   -4.4920   14.9030    1.7830 C   0  0  0  0  0  0  0  0  0  0  0  0
   -6.1560   14.9720   -1.1300 C   0  0  0  0  0  0  0  0  0  0  0  0
   -5.0970   15.0120   -0.2950 C   0  0  0  0  0  0  0  0  0  0  0  0
   -4.6180   15.7420    2.8050 N   0  0  0  0  0  0  0  0  0  0  0  0
   -3.4830   14.2470    1.5140 O   0  0  0  0  0  0  0  0  0  0  0  0
   -5.8800   15.1130   -2.4830 C   0  0  0  0  0  0  0  0  0  0  0  0
   -3.7710   15.1790   -0.6520 C   0  0  0  0  0  0  0  0  0  0  0  0
   -4.5390   15.2810   -2.8870 C   0  0  0  0  0  0  0  0  0  0  0  0
   -3.5060   15.3130   -1.9770 C   0  0  0  0  0  0  0  0  0  0  0  0
  1  2  1  0
  2  3  2  0
  2  4  1  0
  4  5  1  0
  5  6  1  0
  6  7  2  0
  6  8  1  0
  8  9  1  0
  7 10  1  0
  8 11  1  0
 10 11  2  0
  9 12  1  0
  9 13  2  0
 10 14  1  0
 11 15  1  0
 14 16  2  0
 15 17  2  0
 16 17  1  0
M  END
