mac-x0398-mac-x0587
     RDKit          3D

 25 27  0  0  0  0  0  0  0  0999 V2000
   -6.3510   15.0240    2.2040 N   0  0  0  0  0  0  0  0  0  0  0  0
   -6.5170   14.0420    1.1560 C   0  0  2  0  0  0  0  0  0  0  0  0
   -5.2430   13.3030    0.9720 C   0  0  0  0  0  0  0  0  0  0  0  0
   -7.1190   14.6540   -0.1330 C   0  0  0  0  0  0  0  0  0  0  0  0
   -6.1320   15.1190   -1.2160 C   0  0  2  0  0  0  0  0  0  0  0  0
   -4.4950   13.4000   -0.0960 C   0  0  0  0  0  0  0  0  0  0  0  0
   -6.8080   15.0140   -2.4830 O   0  0  0  0  0  0  0  0  0  0  0  0
   -4.8090   14.2860   -1.2680 C   0  0  2  0  0  0  0  0  0  0  0  0
   -3.6900   15.3140   -1.2780 C   0  0  2  0  0  0  0  0  0  0  0  0
   -4.6890   13.4880   -2.5810 C   0  0  0  0  0  0  0  0  0  0  0  0
   -4.0700   14.5130   -3.4630 C   0  0  0  0  0  0  0  0  0  0  0  0
   -3.1250   15.3890   -2.6930 C   0  0  2  0  0  0  0  0  0  0  0  0
   -2.5850   14.9220   -0.4290 N   0  0  0  0  0  0  0  0  0  0  0  0
   -4.3100   14.6320   -4.6510 O   0  0  0  0  0  0  0  0  0  0  0  0
   -1.8030   14.8510   -2.5290 N   0  0  0  0  0  0  0  0  0  0  0  0
   -1.4410   14.7920   -1.1850 C   0  0  0  0  0  0  0  0  0  0  0  0
   -0.3310   14.6660   -0.7200 O   0  0  0  0  0  0  0  0  0  0  0  0
   -1.1860   14.0130   -3.5130 C   0  0  0  0  0  0  0  0  0  0  0  0
    0.1840   14.4830   -4.0060 C   0  0  2  0  0  0  0  0  0  0  0  0
    0.1450   15.9110   -4.5560 C   0  0  0  0  0  0  0  0  0  0  0  0
    0.6600   13.2600   -5.2890 S   0  0  0  0  0  0  0  0  0  0  0  0
    0.0370   11.7490   -4.4840 C   0  0  0  0  0  0  0  0  0  0  0  0
    0.5800   11.4590   -3.0980 C   0  0  0  0  0  0  0  0  0  0  0  0
    0.3900   10.3720   -2.5480 O   0  0  0  0  0  0  0  0  0  0  0  0
    1.2900   12.4370   -2.5030 O   0  0  0  0  0  0  0  0  0  0  0  0
  2  1  1  1
  2  3  1  0
  2  4  1  0
  4  5  1  0
  3  6  2  0
  5  7  1  6
  5  8  1  0
  8  6  1  1
  8  9  1  0
  8 10  1  0
 10 11  1  0
  9 12  1  0
 12 11  1  6
  9 13  1  1
 11 14  2  0
 12 15  1  0
 13 16  1  0
 15 16  1  0
 16 17  2  0
 15 18  1  0
 18 19  1  0
 19 20  1  6
 19 21  1  0
 21 22  1  0
 22 23  1  0
 23 24  2  0
 23 25  1  0
M  END
