mac-x0302-diamond-x0592_0_A
     RDKit          3D

 17 17  0  0  0  0  0  0  0  0999 V2000
    1.4540   14.3590   -3.7600 O   0  0  0  0  0  0  0  0  0  0  0  0
    0.4660   14.1180   -2.8750 C   0  0  0  0  0  0  0  0  0  0  0  0
    0.7160   13.5530   -1.8220 O   0  0  0  0  0  0  0  0  0  0  0  0
   -0.9020   14.6050   -3.3280 C   0  0  0  0  0  0  0  0  0  0  0  0
   -1.8170   14.5700   -2.1910 N   0  0  0  0  0  0  0  0  0  0  0  0
   -3.1040   15.0810   -2.2640 C   0  0  0  0  0  0  0  0  0  0  0  0
   -3.5730   15.5610   -3.2920 O   0  0  0  0  0  0  0  0  0  0  0  0
   -3.9030   15.0080   -0.9920 C   0  0  0  0  0  0  0  0  0  0  0  0
   -5.3230   14.9650   -1.0220 C   0  0  0  0  0  0  0  0  0  0  0  0
   -3.2370   14.9740    0.2660 C   0  0  0  0  0  0  0  0  0  0  0  0
   -6.0410   14.8830    0.1870 C   0  0  0  0  0  0  0  0  0  0  0  0
   -3.9760   14.9040    1.4220 C   0  0  0  0  0  0  0  0  0  0  0  0
   -1.8510   15.0000    0.4630 N   0  0  0  0  0  0  0  0  0  0  0  0
   -7.3940   14.8180    0.3920 O   0  0  0  0  0  0  0  0  0  0  0  0
   -5.3460   14.8580    1.3870 C   0  0  0  0  0  0  0  0  0  0  0  0
   -7.8010   14.2050    1.6390 C   0  0  0  0  0  0  0  0  0  0  0  0
   -7.4660   14.9680    2.7990 O   0  0  0  0  0  0  0  0  0  0  0  0
  1  2  1  0
  2  3  2  0
  2  4  1  0
  4  5  1  0
  5  6  1  0
  6  7  2  0
  6  8  1  0
  8  9  2  0
  8 10  1  0
  9 11  1  0
 10 12  2  0
 10 13  1  0
 11 14  1  0
 11 15  2  0
 12 15  1  0
 14 16  1  0
 16 17  1  0
M  END
