mac-x0338-diamond-x0711_0_A
     RDKit          3D

 15 15  0  0  0  0  0  0  0  0999 V2000
   -4.9830   13.3740    1.5110 N   0  0  0  0  0  0  0  0  0  0  0  0
   -5.4680   14.5430    0.8760 C   0  0  0  0  0  0  0  0  0  0  0  0
   -5.2290   15.5350    1.8200 O   0  0  0  0  0  0  0  0  0  0  0  0
   -6.8670   14.4300    0.6990 O   0  0  0  0  0  0  0  0  0  0  0  0
   -4.8020   14.7560   -0.4670 C   0  0  0  0  0  0  0  0  0  0  0  0
   -3.4320   14.7520   -0.5540 N   0  0  0  0  0  0  0  0  0  0  0  0
   -5.6030   14.9270   -1.5840 C   0  0  0  0  0  0  0  0  0  0  0  0
   -2.9320   14.9220   -1.7980 C   0  0  0  0  0  0  0  0  0  0  0  0
   -5.0980   15.0890   -2.8210 N   0  0  0  0  0  0  0  0  0  0  0  0
   -1.5090   14.9200   -1.8520 N   0  0  0  0  0  0  0  0  0  0  0  0
   -3.7470   15.0870   -2.9090 C   0  0  0  0  0  0  0  0  0  0  0  0
   -0.6500   14.0490   -3.0130 S   0  0  0  0  0  0  0  0  0  0  0  0
   -1.8750   13.0560   -3.8340 C   0  0  0  0  0  0  0  0  0  0  0  0
   -0.0390   14.9530   -3.9650 O   0  0  0  0  0  0  0  0  0  0  0  0
    0.1770   13.1620   -2.2220 O   0  0  0  0  0  0  0  0  0  0  0  0
  1  2  1  0
  2  3  1  0
  2  4  1  0
  2  5  1  0
  5  6  2  0
  5  7  1  0
  6  8  1  0
  7  9  2  0
  8 10  1  0
  8 11  2  0
  9 11  1  0
 12 10  1  0
 12 13  1  0
 12 14  2  0
 12 15  2  0
M  END
