mac-x0568-diamond-x0895_1_A
     RDKit          3D

 16 18  0  0  0  0  0  0  0  0999 V2000
   -8.8590   13.6840    1.4100 C   0  0  0  0  0  0  0  0  0  0  0  0
   -7.9420   14.7610    0.8780 C   0  0  1  0  0  0  0  0  0  0  0  0
   -6.4740   14.6080    1.3270 C   0  0  0  0  0  0  0  0  0  0  0  0
   -8.0110   14.8150   -0.5820 N   0  0  0  0  0  0  0  0  0  0  0  0
   -7.2010   14.0320   -1.3480 C   0  0  0  0  0  0  0  0  0  0  0  0
   -5.4360   14.6320    0.1650 C   0  0  2  0  0  0  0  0  0  0  0  0
   -5.9410   13.8900   -1.0360 C   0  0  0  0  0  0  0  0  0  0  0  0
   -4.0830   14.1890    0.6810 C   0  0  1  0  0  0  0  0  0  0  0  0
   -4.8880   15.9520   -0.3710 C   0  0  0  0  0  0  0  0  0  0  0  0
   -3.8150   15.3040   -1.2350 C   0  0  0  0  0  0  0  0  0  0  0  0
   -4.2150   12.9070    1.1850 O   0  0  0  0  0  0  0  0  0  0  0  0
   -3.3060   14.2530   -0.4900 N   0  0  0  0  0  0  0  0  0  0  0  0
   -3.2880   14.9410    1.6120 N   0  0  0  0  0  0  0  0  0  0  0  0
   -3.4760   15.6330   -2.3600 O   0  0  0  0  0  0  0  0  0  0  0  0
   -1.9230   14.1100   -0.1910 C   0  0  0  0  0  0  0  0  0  0  0  0
   -1.8750   14.7150    1.2010 C   0  0  0  0  0  0  0  0  0  0  0  0
  2  1  1  6
  2  3  1  0
  2  4  1  0
  4  5  1  0
  6  3  1  1
  5  7  2  0
  6  7  1  0
  6  8  1  0
  6  9  1  0
  9 10  1  0
  8 11  1  1
  8 12  1  0
 10 12  1  0
  8 13  1  0
 10 14  2  0
 12 15  1  0
 13 16  1  0
 15 16  1  0
M  END
