mac-x0567-mac-x0223
     RDKit          3D

 25 27  0  0  0  0  0  0  0  0999 V2000
   -0.5480   14.3460   -1.6060 N   0  0  0  0  0  0  0  0  0  0  0  0
   -1.4870   14.5790   -0.6970 C   0  0  0  0  0  0  0  0  0  0  0  0
   -1.2370   14.5120    0.5850 N   0  0  0  0  0  0  0  0  0  0  0  0
   -2.7460   14.8990   -0.8010 C   0  0  0  0  0  0  0  0  0  0  0  0
    0.1010   14.1700    0.8380 C   0  0  0  0  0  0  0  0  0  0  0  0
   -2.2730   14.7790    1.4250 N   0  0  0  0  0  0  0  0  0  0  0  0
   -3.2660   15.0360    0.5280 C   0  0  0  0  0  0  0  0  0  0  0  0
   -3.3600   15.0530   -2.0130 C   0  0  0  0  0  0  0  0  0  0  0  0
    0.7610   14.0370   -0.5980 C   0  0  0  0  0  0  0  0  0  0  0  0
   -4.6050   15.3850    0.6730 C   0  0  0  0  0  0  0  0  0  0  0  0
   -4.6850   15.3970   -1.8440 C   0  0  0  0  0  0  0  0  0  0  0  0
    0.6190   12.6960   -1.1910 O   0  0  0  0  0  0  0  0  0  0  0  0
   -5.2850   15.5580   -0.5640 C   0  0  0  0  0  0  0  0  0  0  0  0
    0.3870   12.4650   -2.5640 C   0  0  0  0  0  0  0  0  0  0  0  0
    0.9910   13.4690   -3.5610 C   0  0  0  0  0  0  0  0  0  0  0  0
   -0.2470   11.4880   -2.9430 O   0  0  0  0  0  0  0  0  0  0  0  0
    0.0610   14.6010   -3.9910 C   0  0  0  0  0  0  0  0  0  0  0  0
   -1.3190   14.4110   -4.1920 C   0  0  0  0  0  0  0  0  0  0  0  0
    0.5980   15.8900   -4.1850 C   0  0  0  0  0  0  0  0  0  0  0  0
   -0.2240   16.9580   -4.5510 C   0  0  0  0  0  0  0  0  0  0  0  0
   -2.1440   15.4850   -4.5610 C   0  0  0  0  0  0  0  0  0  0  0  0
    0.1950   18.2370   -4.7530 O   0  0  0  0  0  0  0  0  0  0  0  0
   -1.5820   16.7520   -4.7270 C   0  0  0  0  0  0  0  0  0  0  0  0
    1.1880   18.3950   -5.7400 C   0  0  0  0  0  0  0  0  0  0  0  0
   -2.3480   17.8370   -5.0530 O   0  0  0  0  0  0  0  0  0  0  0  0
  1  2  1  0
  2  3  1  0
  2  4  2  0
  3  5  1  0
  3  6  1  0
  4  7  1  0
  6  7  2  0
  4  8  1  0
  5  9  1  0
  7 10  1  0
  8 11  2  0
  9 12  1  0
 10 13  2  0
 11 13  1  0
 12 14  1  0
 14 15  1  0
 14 16  2  0
 15 17  1  0
 17 18  2  0
 17 19  1  0
 19 20  2  0
 18 21  1  0
 20 22  1  0
 20 23  1  0
 21 23  2  0
 22 24  1  0
 23 25  1  0
M  END
