mac-x0455-mac-x0341
     RDKit          3D

 25 27  0  0  0  0  0  0  0  0999 V2000
   -2.5600   14.3600   -3.3240 C   0  0  0  0  0  0  0  0  0  0  0  0
   -1.1140   14.2510   -3.8150 C   0  0  1  0  0  0  0  0  0  0  0  0
   -1.0170   15.3300   -4.7760 O   0  0  0  0  0  0  0  0  0  0  0  0
   -0.1280   14.6090   -2.6230 C   0  0  0  0  0  0  0  0  0  0  0  0
   -0.9280   12.9460   -4.5700 C   0  0  0  0  0  0  0  0  0  0  0  0
    1.1640   14.9450   -3.1180 O   0  0  0  0  0  0  0  0  0  0  0  0
    0.0990   13.4850   -1.7630 O   0  0  0  0  0  0  0  0  0  0  0  0
   -0.7880   15.8530   -1.9780 C   0  0  0  0  0  0  0  0  0  0  0  0
   -1.8680   11.9090   -4.4490 C   0  0  0  0  0  0  0  0  0  0  0  0
    0.1710   12.7500   -5.4200 C   0  0  0  0  0  0  0  0  0  0  0  0
   -1.7160   10.7150   -5.1510 C   0  0  0  0  0  0  0  0  0  0  0  0
    0.3250   11.5560   -6.1220 C   0  0  0  0  0  0  0  0  0  0  0  0
   -2.0050   15.5650   -1.1350 C   0  0  0  0  0  0  0  0  0  0  0  0
   -0.6200   10.5400   -5.9880 C   0  0  0  0  0  0  0  0  0  0  0  0
   -1.7410   15.3000    0.1960 C   0  0  0  0  0  0  0  0  0  0  0  0
   -3.3500   15.5510   -1.6050 C   0  0  0  0  0  0  0  0  0  0  0  0
   -4.3830   15.2610   -0.6950 C   0  0  0  0  0  0  0  0  0  0  0  0
   -2.7690   15.0270    1.0690 C   0  0  0  0  0  0  0  0  0  0  0  0
   -5.8220   15.2000   -1.0620 C   0  0  0  0  0  0  0  0  0  0  0  0
   -4.0790   15.0080    0.6340 C   0  0  0  0  0  0  0  0  0  0  0  0
   -6.2100   15.3520   -2.2120 O   0  0  0  0  0  0  0  0  0  0  0  0
   -6.6950   14.9380   -0.0190 N   0  0  0  0  0  0  0  0  0  0  0  0
   -5.0370   14.7300    1.5860 N   0  0  0  0  0  0  0  0  0  0  0  0
   -6.2680   14.7040    1.2620 C   0  0  0  0  0  0  0  0  0  0  0  0
   -7.1630   14.4410    2.2440 N   0  0  0  0  0  0  0  0  0  0  0  0
  2  1  1  1
  2  3  1  0
  2  4  1  0
  2  5  1  0
  4  6  1  0
  4  7  1  0
  4  8  1  0
  5  9  2  0
  5 10  1  0
  9 11  1  0
 10 12  2  0
  8 13  1  0
 11 14  2  0
 12 14  1  0
 13 15  2  0
 13 16  1  0
 16 17  2  0
 15 18  1  0
 17 19  1  0
 17 20  1  0
 18 20  2  0
 19 21  2  0
 19 22  1  0
 20 23  1  0
 22 24  1  0
 23 24  2  0
 24 25  1  0
M  END
