mac-x0180-mac-x0358
     RDKit          3D

 24 25  0  0  0  0  0  0  0  0999 V2000
   -7.7780   14.4660    1.5620 C   0  0  0  0  0  0  0  0  0  0  0  0
   -6.7630   14.6520    0.4690 C   0  0  0  0  0  0  0  0  0  0  0  0
   -7.1310   14.7240   -0.7090 O   0  0  0  0  0  0  0  0  0  0  0  0
   -5.4230   14.7550    0.7210 N   0  0  0  0  0  0  0  0  0  0  0  0
   -4.3360   14.9920   -0.1440 C   0  0  0  0  0  0  0  0  0  0  0  0
   -3.0570   15.0650    0.4240 C   0  0  0  0  0  0  0  0  0  0  0  0
   -4.4570   15.1580   -1.5280 C   0  0  0  0  0  0  0  0  0  0  0  0
   -1.9240   15.3000   -0.3730 C   0  0  0  0  0  0  0  0  0  0  0  0
   -3.3310   15.3920   -2.3280 C   0  0  0  0  0  0  0  0  0  0  0  0
   -2.0560   15.4650   -1.7580 C   0  0  0  0  0  0  0  0  0  0  0  0
   -0.8600   15.7270   -2.5990 C   0  0  0  0  0  0  0  0  0  0  0  0
   -0.4400   15.3980   -3.7810 N   0  0  0  0  0  0  0  0  0  0  0  0
   -0.0340   16.5010   -1.9210 O   0  0  0  0  0  0  0  0  0  0  0  0
   -1.2000   14.5630   -4.5630 C   0  0  0  0  0  0  0  0  0  0  0  0
   -0.7140   13.2750   -4.8330 C   0  0  0  0  0  0  0  0  0  0  0  0
   -2.4320   14.9910   -5.0630 C   0  0  0  0  0  0  0  0  0  0  0  0
    0.6460   12.8310   -4.3130 C   0  0  0  0  0  0  0  0  0  0  0  0
   -1.5140   12.4260   -5.5920 C   0  0  0  0  0  0  0  0  0  0  0  0
   -3.2090   14.1360   -5.8300 C   0  0  0  0  0  0  0  0  0  0  0  0
    0.6200   12.1290   -2.9820 C   0  0  0  0  0  0  0  0  0  0  0  0
   -1.0680   11.1600   -5.8460 O   0  0  0  0  0  0  0  0  0  0  0  0
   -2.7520   12.8460   -6.0910 C   0  0  0  0  0  0  0  0  0  0  0  0
    1.3610   12.7860   -2.0590 O   0  0  0  0  0  0  0  0  0  0  0  0
    0.0470   11.0940   -2.6810 O   0  0  0  0  0  0  0  0  0  0  0  0
  1  2  1  0
  2  3  2  0
  2  4  1  0
  4  5  1  0
  5  6  2  0
  5  7  1  0
  6  8  1  0
  7  9  2  0
  8 10  2  0
  9 10  1  0
 10 11  1  0
 11 12  2  3
 11 13  1  0
 12 14  1  0
 14 15  2  0
 14 16  1  0
 15 17  1  0
 15 18  1  0
 16 19  2  0
 17 20  1  0
 18 21  1  0
 18 22  2  0
 19 22  1  0
 20 23  1  0
 20 24  2  0
M  END
