mac-x0302-diamond-x0574_0_A
     RDKit          3D

 20 21  0  0  0  0  0  0  0  0999 V2000
    1.6060   14.3370   -3.7720 O   0  0  0  0  0  0  0  0  0  0  0  0
    0.5340   14.1170   -2.9900 C   0  0  0  0  0  0  0  0  0  0  0  0
    0.6640   13.5550   -1.9150 O   0  0  0  0  0  0  0  0  0  0  0  0
   -0.7660   14.6240   -3.5900 C   0  0  0  0  0  0  0  0  0  0  0  0
   -1.8880   14.2480   -2.7470 N   0  0  0  0  0  0  0  0  0  0  0  0
   -3.0880   14.9000   -2.8530 C   0  0  0  0  0  0  0  0  0  0  0  0
   -3.5580   15.2460   -3.9310 O   0  0  0  0  0  0  0  0  0  0  0  0
   -3.7710   15.1760   -1.5290 C   0  0  1  0  0  0  0  0  0  0  0  0
   -5.1590   14.5330   -1.3670 C   0  0  0  0  0  0  0  0  0  0  0  0
   -2.9440   14.8660   -0.2720 C   0  0  2  0  0  0  0  0  0  0  0  0
   -5.8780   15.2410   -0.2140 C   0  0  1  0  0  0  0  0  0  0  0  0
   -3.6320   15.3820    0.9390 C   0  0  0  0  0  0  0  0  0  0  0  0
   -1.0910   14.8710   -0.3940 S   0  0  0  0  0  0  0  0  0  0  0  0
   -2.8730   13.5110    0.3350 C   0  0  0  0  0  0  0  0  0  0  0  0
   -6.9990   14.4770    0.2350 O   0  0  0  0  0  0  0  0  0  0  0  0
   -4.9510   15.5150    0.9640 C   0  0  0  0  0  0  0  0  0  0  0  0
   -2.2580   13.8940    1.6400 N   0  0  0  0  0  0  0  0  0  0  0  0
   -1.0460   14.5950    1.3460 C   0  0  1  0  0  0  0  0  0  0  0  0
   -6.9750   14.2150    1.6450 C   0  0  0  0  0  0  0  0  0  0  0  0
    0.0850   13.8450    1.7810 N   0  0  0  0  0  0  0  0  0  0  0  0
  1  2  1  0
  2  3  2  0
  2  4  1  0
  4  5  1  0
  5  6  1  0
  6  7  2  0
  8  6  1  6
  8  9  1  0
  8 10  1  0
  9 11  1  0
 10 12  1  1
 10 13  1  0
 10 14  1  0
 11 15  1  1
 11 16  1  0
 12 16  2  0
 14 17  1  0
 13 18  1  0
 17 18  1  0
 15 19  1  0
 18 20  1  6
M  END
