mac-x0178-mac-x0568
     RDKit          3D

 25 26  0  0  0  0  0  0  0  0999 V2000
   -0.2960   18.4170   -6.1880 N   0  0  0  0  0  0  0  0  0  0  0  0
   -1.4720   17.3070   -5.7740 S   0  0  2  0  0  0  0  0  0  0  0  0
   -2.3590   17.1270   -6.8900 O   0  0  0  0  0  0  0  0  0  0  0  0
   -1.9450   17.6790   -4.4500 N   0  0  0  0  0  0  0  0  0  0  0  0
   -0.8160   15.8510   -5.0340 C   0  0  0  0  0  0  0  0  0  0  0  0
   -2.5700   16.3870   -4.0450 C   0  0  0  0  0  0  0  0  0  0  0  0
    0.3140   16.0210   -4.2290 C   0  0  0  0  0  0  0  0  0  0  0  0
   -1.4130   14.5920   -5.2030 C   0  0  0  0  0  0  0  0  0  0  0  0
   -2.1360   15.7610   -2.7290 C   0  0  0  0  0  0  0  0  0  0  0  0
    0.8510   14.9260   -3.5680 C   0  0  0  0  0  0  0  0  0  0  0  0
   -0.8710   13.4980   -4.5380 C   0  0  0  0  0  0  0  0  0  0  0  0
   -3.3990   15.4530   -2.0830 N   0  0  0  0  0  0  0  0  0  0  0  0
    0.2520   13.6710   -3.7180 C   0  0  0  0  0  0  0  0  0  0  0  0
    0.8310   12.5380   -2.9850 C   0  0  0  0  0  0  0  0  0  0  0  0
   -3.5420   15.3520   -0.8300 C   0  0  0  0  0  0  0  0  0  0  0  0
    1.5350   12.6750   -2.0060 O   0  0  0  0  0  0  0  0  0  0  0  0
    0.4740   11.3610   -3.5210 O   0  0  0  0  0  0  0  0  0  0  0  0
   -2.4390   15.5240   -0.0420 N   0  0  0  0  0  0  0  0  0  0  0  0
   -4.8400   15.0740   -0.2150 C   0  0  0  0  0  0  0  0  0  0  0  0
   -5.9610   15.0070   -1.0260 C   0  0  0  0  0  0  0  0  0  0  0  0
   -4.9730   14.8800    1.1460 C   0  0  0  0  0  0  0  0  0  0  0  0
   -7.2050   14.7590   -0.5570 N   0  0  0  0  0  0  0  0  0  0  0  0
   -6.2520   14.6250    1.6500 C   0  0  0  0  0  0  0  0  0  0  0  0
   -7.3300   14.5740    0.7770 C   0  0  0  0  0  0  0  0  0  0  0  0
   -8.7060   14.3080    1.3090 C   0  0  0  0  0  0  0  0  0  0  0  0
  2  1  1  6
  2  3  2  0
  2  4  2  0
  2  5  1  0
  4  6  1  0
  5  7  2  0
  5  8  1  0
  6  9  1  0
  7 10  1  0
  8 11  2  0
  9 12  1  0
 10 13  2  0
 11 13  1  0
 13 14  1  0
 12 15  2  3
 14 16  2  0
 14 17  1  0
 15 18  1  0
 15 19  1  0
 19 20  2  0
 19 21  1  0
 20 22  1  0
 21 23  2  0
 22 24  2  0
 23 24  1  0
 24 25  1  0
M  END
