mac-x0303-mac-x0527
     RDKit          3D

 23 25  0  0  0  0  0  0  0  0999 V2000
   -8.5930   12.9940    2.6980 N   0  0  0  0  0  0  0  0  0  0  0  0
   -8.6780   14.5410    2.0400 S   0  0  0  0  0  0  0  0  0  0  0  0
   -8.4960   15.5010    3.1030 O   0  0  0  0  0  0  0  0  0  0  0  0
   -9.7830   14.5990    1.1190 O   0  0  0  0  0  0  0  0  0  0  0  0
   -7.2290   14.7060    1.0520 C   0  0  0  0  0  0  0  0  0  0  0  0
   -7.2200   14.8120   -0.3170 N   0  0  0  0  0  0  0  0  0  0  0  0
   -6.0140   14.7470    1.5430 N   0  0  0  0  0  0  0  0  0  0  0  0
   -5.9050   14.9190   -0.7130 C   0  0  0  0  0  0  0  0  0  0  0  0
   -5.1880   14.8750    0.4760 C   0  0  0  0  0  0  0  0  0  0  0  0
   -5.2910   15.0420   -1.9620 C   0  0  0  0  0  0  0  0  0  0  0  0
   -3.7960   14.9560    0.4690 C   0  0  0  0  0  0  0  0  0  0  0  0
   -3.8850   15.1080   -1.9430 C   0  0  0  0  0  0  0  0  0  0  0  0
   -3.1610   15.0690   -0.7570 C   0  0  0  0  0  0  0  0  0  0  0  0
   -3.0740   15.2120   -3.1650 C   0  0  0  0  0  0  0  0  0  0  0  0
   -3.5710   15.5510   -4.2230 O   0  0  0  0  0  0  0  0  0  0  0  0
   -1.7490   14.8780   -3.0000 N   0  0  0  0  0  0  0  0  0  0  0  0
   -0.8750   14.7870   -4.1410 C   0  0  0  0  0  0  0  0  0  0  0  0
   -0.8630   13.3910   -4.6990 C   0  0  0  0  0  0  0  0  0  0  0  0
   -1.8210   12.4400   -4.3080 C   0  0  0  0  0  0  0  0  0  0  0  0
    0.1170   13.0220   -5.6320 C   0  0  0  0  0  0  0  0  0  0  0  0
   -1.7950   11.1480   -4.8390 C   0  0  0  0  0  0  0  0  0  0  0  0
    0.1420   11.7340   -6.1610 C   0  0  0  0  0  0  0  0  0  0  0  0
   -0.8130   10.7960   -5.7650 C   0  0  0  0  0  0  0  0  0  0  0  0
  2  1  1  0
  2  3  2  0
  2  4  2  0
  2  5  1  0
  5  6  1  0
  5  7  2  0
  6  8  1  0
  7  9  1  0
  8  9  2  0
  8 10  1  0
  9 11  1  0
 10 12  2  0
 11 13  2  0
 12 13  1  0
 12 14  1  0
 14 15  2  0
 14 16  1  0
 16 17  1  0
 17 18  1  0
 18 19  2  0
 18 20  1  0
 19 21  1  0
 20 22  2  0
 21 23  2  0
 22 23  1  0
M  END
