mac-x0411-diamond-x0685_0_A
     RDKit          3D

 26 27  0  0  0  0  0  0  0  0999 V2000
    0.6630    8.8020   -7.7470 Cl  0  0  0  0  0  0  0  0  0  0  0  0
   -0.6240    9.5130   -6.8380 C   0  0  0  0  0  0  0  0  0  0  0  0
   -0.5150   10.7710   -6.1910 C   0  0  0  0  0  0  0  0  0  0  0  0
   -1.8060    8.7830   -6.7730 C   0  0  0  0  0  0  0  0  0  0  0  0
    0.6900   11.4550   -6.2770 O   0  0  0  0  0  0  0  0  0  0  0  0
   -1.6340   11.2920   -5.4850 C   0  0  0  0  0  0  0  0  0  0  0  0
   -2.8940    9.2810   -6.0790 C   0  0  0  0  0  0  0  0  0  0  0  0
   -1.6660   12.6300   -4.7720 C   0  0  0  0  0  0  0  0  0  0  0  0
    0.9410   12.4860   -5.2890 C   0  0  0  0  0  0  0  0  0  0  0  0
   -2.8130   10.5190   -5.4450 C   0  0  0  0  0  0  0  0  0  0  0  0
    0.8190   11.9400   -3.8640 C   0  0  0  0  0  0  0  0  0  0  0  0
   -2.5730   13.6830   -5.4430 C   0  0  0  0  0  0  0  0  0  0  0  0
    1.3300   12.7690   -2.9190 O   0  0  0  0  0  0  0  0  0  0  0  0
    0.3220   10.8630   -3.5700 O   0  0  0  0  0  0  0  0  0  0  0  0
   -2.5340   15.0810   -4.8130 C   0  0  0  0  0  0  0  0  0  0  0  0
   -3.0980   15.0900   -3.4630 C   0  0  0  0  0  0  0  0  0  0  0  0
   -3.5580   15.0510   -2.3610 C   0  0  0  0  0  0  0  0  0  0  0  0
   -4.1430   15.0390   -1.0700 C   0  0  0  0  0  0  0  0  0  0  0  0
   -3.3600   15.1040    0.0730 C   0  0  0  0  0  0  0  0  0  0  0  0
   -5.5120   14.9660   -0.9170 C   0  0  0  0  0  0  0  0  0  0  0  0
   -3.9840   15.1050    1.3090 C   0  0  0  0  0  0  0  0  0  0  0  0
   -6.1390   14.9600    0.2740 N   0  0  0  0  0  0  0  0  0  0  0  0
   -5.3720   15.0380    1.3810 C   0  0  0  0  0  0  0  0  0  0  0  0
   -5.9430   15.0730    2.6550 N   0  0  0  0  0  0  0  0  0  0  0  0
   -7.3110   14.6220    2.9030 C   0  0  0  0  0  0  0  0  0  0  0  0
   -7.4410   13.1140    2.7770 C   0  0  0  0  0  0  0  0  0  0  0  0
  1  2  1  0
  2  3  2  0
  2  4  1  0
  3  5  1  0
  3  6  1  0
  4  7  2  0
  6  8  1  0
  5  9  1  0
  6 10  2  0
  7 10  1  0
  9 11  1  0
  8 12  1  0
 11 13  1  0
 11 14  2  0
 12 15  1  0
 15 16  1  0
 16 17  3  0
 17 18  1  0
 18 19  2  0
 18 20  1  0
 19 21  1  0
 20 22  2  0
 21 23  2  0
 22 23  1  0
 23 24  1  0
 24 25  1  0
 25 26  1  0
M  END
