mac-x0182-mac-x0137
     RDKit          3D

 26 30  0  0  0  0  0  0  0  0999 V2000
    1.4830   11.4970   -7.5310 O   0  0  0  0  0  0  0  0  0  0  0  0
    0.3490   11.2640   -7.2450 C   0  0  0  0  0  0  0  0  0  0  0  0
   -0.6520   12.0610   -6.8030 N   0  0  0  0  0  0  0  0  0  0  0  0
   -0.3180    9.9890   -7.2150 C   0  0  0  0  0  0  0  0  0  0  0  0
   -0.6820   11.4660   -5.2930 S   0  0  2  0  0  0  0  0  0  0  0  0
   -1.0250    9.9560   -6.0320 C   0  0  0  0  0  0  0  0  0  0  0  0
   -0.3250    8.9720   -8.1230 C   0  0  0  0  0  0  0  0  0  0  0  0
   -0.7340   10.1570   -4.3240 O   0  0  0  0  0  0  0  0  0  0  0  0
   -1.8020    8.8970   -5.6620 C   0  0  0  0  0  0  0  0  0  0  0  0
   -1.1120    7.8700   -7.7860 C   0  0  0  0  0  0  0  0  0  0  0  0
   -0.3750   12.4700   -4.0030 C   0  0  0  0  0  0  0  0  0  0  0  0
   -1.8400    7.8340   -6.5710 C   0  0  0  0  0  0  0  0  0  0  0  0
   -0.2070   13.9470   -4.3520 C   0  0  0  0  0  0  0  0  0  0  0  0
   -0.2330   12.1460   -2.5540 C   0  0  0  0  0  0  0  0  0  0  0  0
   -0.9130   14.7810   -3.3200 C   0  0  0  0  0  0  0  0  0  0  0  0
    0.5970   13.3030   -2.0760 C   0  0  0  0  0  0  0  0  0  0  0  0
   -0.3020   14.4480   -2.0360 N   0  0  0  0  0  0  0  0  0  0  0  0
   -0.9290   14.5820   -0.8330 C   0  0  0  0  0  0  0  0  0  0  0  0
   -0.0960   14.3760    0.2260 N   0  0  0  0  0  0  0  0  0  0  0  0
   -2.2100   14.8780   -0.5410 C   0  0  0  0  0  0  0  0  0  0  0  0
   -0.5220   14.3820    1.4960 C   0  0  0  0  0  0  0  0  0  0  0  0
   -2.5940   14.9440    0.8870 C   0  0  0  0  0  0  0  0  0  0  0  0
   -3.4370   15.1950   -1.2130 C   0  0  0  0  0  0  0  0  0  0  0  0
   -1.7110   14.6510    1.8800 N   0  0  0  0  0  0  0  0  0  0  0  0
   -3.8320   15.2980    1.0580 N   0  0  0  0  0  0  0  0  0  0  0  0
   -4.3200   15.4440   -0.2290 C   0  0  0  0  0  0  0  0  0  0  0  0
  1  2  2  0
  2  3  1  0
  2  4  1  0
  5  3  1  6
  4  6  2  0
  5  6  1  0
  4  7  1  0
  5  8  2  0
  6  9  1  0
  7 10  2  0
  5 11  2  0
  9 12  2  0
 10 12  1  0
 11 13  1  0
 11 14  1  0
 13 15  1  0
 14 16  1  0
 15 17  1  0
 16 17  1  0
 17 18  1  0
 18 19  1  0
 18 20  2  0
 19 21  1  0
 20 22  1  0
 20 23  1  0
 21 24  2  0
 22 24  1  0
 22 25  2  0
 23 26  2  0
 25 26  1  0
M  END
