mac-x0282-diamond-x0438_0_A
     RDKit          3D

 18 20  0  0  0  0  0  0  0  0999 V2000
   -8.1860   15.5360    3.9160 C   0  0  0  0  0  0  0  0  0  0  0  0
   -9.1550   15.1340    2.4720 S   0  0  0  0  0  0  0  0  0  0  0  0
  -10.3250   14.4170    2.9570 O   0  0  0  0  0  0  0  0  0  0  0  0
   -8.1810   13.9750    1.5130 C   0  0  0  0  0  0  0  0  0  0  0  0
   -9.3710   16.3370    1.6910 O   0  0  0  0  0  0  0  0  0  0  0  0
   -6.8920   14.5080    0.8710 C   0  0  2  0  0  0  0  0  0  0  0  0
   -6.9510   15.2240   -0.3680 N   0  0  0  0  0  0  0  0  0  0  0  0
   -5.7940   13.6000    0.5570 N   0  0  0  0  0  0  0  0  0  0  0  0
   -4.7140   14.5430    0.1220 C   0  0  2  0  0  0  0  0  0  0  0  0
   -5.5420   15.6560   -0.5500 C   0  0  0  0  0  0  0  0  0  0  0  0
   -3.7730   14.0730   -1.0280 C   0  0  0  0  0  0  0  0  0  0  0  0
   -3.8630   14.9620    1.2450 N   0  0  0  0  0  0  0  0  0  0  0  0
   -2.4170   14.2840   -0.4590 C   0  0  0  0  0  0  0  0  0  0  0  0
   -2.5230   14.7620    0.8340 C   0  0  0  0  0  0  0  0  0  0  0  0
   -1.1780   14.0660   -1.0330 C   0  0  0  0  0  0  0  0  0  0  0  0
   -1.4670   15.0110    1.6030 N   0  0  0  0  0  0  0  0  0  0  0  0
   -0.0610   14.3320   -0.2540 C   0  0  0  0  0  0  0  0  0  0  0  0
   -0.2570   14.7900    1.0380 C   0  0  0  0  0  0  0  0  0  0  0  0
  2  1  1  0
  2  3  2  0
  2  4  1  0
  2  5  2  0
  6  4  1  6
  6  7  1  0
  6  8  1  0
  9  8  1  0
  7 10  1  0
  9 10  1  6
  9 11  1  0
  9 12  1  0
 11 13  1  0
 12 14  1  0
 13 14  2  0
 13 15  1  0
 14 16  1  0
 15 17  2  0
 16 18  2  0
 17 18  1  0
M  END
