mac-x0402-mac-x0231
     RDKit          3D

 27 30  0  0  0  0  0  0  0  0999 V2000
   -1.5860   14.7440   -2.8450 Cl  0  0  0  0  0  0  0  0  0  0  0  0
   -3.1260   14.7870   -2.1070 C   0  0  0  0  0  0  0  0  0  0  0  0
   -4.3580   14.7500   -2.8060 C   0  0  0  0  0  0  0  0  0  0  0  0
   -3.0050   14.8530   -0.7360 C   0  0  0  0  0  0  0  0  0  0  0  0
   -4.3420   14.6500   -4.3600 C   0  0  0  0  0  0  0  0  0  0  0  0
   -4.1420   14.8770    0.0170 C   0  0  0  0  0  0  0  0  0  0  0  0
   -5.5290   14.7900   -1.9900 C   0  0  0  0  0  0  0  0  0  0  0  0
   -5.4090   14.8450   -0.5580 C   0  0  0  0  0  0  0  0  0  0  0  0
   -4.2420   14.9390    1.7150 S   0  0  0  0  0  0  0  0  0  0  0  0
   -2.8830   14.5000   -4.5560 C   0  0  0  0  0  0  0  0  0  0  0  0
   -5.9450   14.9030    1.5950 C   0  0  0  0  0  0  0  0  0  0  0  0
   -6.4360   14.8620    0.3720 N   0  0  0  0  0  0  0  0  0  0  0  0
   -2.0420   15.6280   -4.6050 C   0  0  0  0  0  0  0  0  0  0  0  0
   -2.3610   13.2120   -4.6300 C   0  0  0  0  0  0  0  0  0  0  0  0
   -6.7070   14.9190    2.7010 N   0  0  0  0  0  0  0  0  0  0  0  0
   -0.6590   15.4360   -4.6660 C   0  0  0  0  0  0  0  0  0  0  0  0
   -0.9940   13.0330   -4.6920 C   0  0  0  0  0  0  0  0  0  0  0  0
   -0.1540   14.1410   -4.6790 C   0  0  0  0  0  0  0  0  0  0  0  0
    0.2850   16.5710   -4.6810 C   0  0  0  0  0  0  0  0  0  0  0  0
   -0.0890   17.7330   -4.7980 O   0  0  0  0  0  0  0  0  0  0  0  0
    1.2900   13.9850   -4.6310 C   0  0  0  0  0  0  0  0  0  0  0  0
    1.6020   16.2300   -4.5550 N   0  0  0  0  0  0  0  0  0  0  0  0
    1.8270   12.5970   -4.5500 C   0  0  0  0  0  0  0  0  0  0  0  0
    2.1040   14.9740   -4.5480 N   0  0  0  0  0  0  0  0  0  0  0  0
    1.3450   12.0070   -3.2500 C   0  0  0  0  0  0  0  0  0  0  0  0
    0.6250   10.8760   -3.4020 O   0  0  0  0  0  0  0  0  0  0  0  0
    1.5380   12.4540   -2.1340 O   0  0  0  0  0  0  0  0  0  0  0  0
  1  2  1  0
  2  3  2  0
  2  4  1  0
  3  5  1  0
  4  6  2  0
  3  7  1  0
  6  8  1  0
  7  8  2  0
  6  9  1  0
  5 10  1  0
  9 11  1  0
  8 12  1  0
 11 12  2  0
 10 13  2  0
 10 14  1  0
 11 15  1  0
 13 16  1  0
 14 17  2  0
 16 18  2  0
 17 18  1  0
 16 19  1  0
 19 20  2  0
 18 21  1  0
 19 22  1  0
 21 23  1  0
 21 24  2  0
 22 24  1  0
 23 25  1  0
 25 26  1  0
 25 27  2  0
M  END
