mac-x0255-mac-x0415
     RDKit          3D

 14 15  0  0  0  0  0  0  0  0999 V2000
    1.2510   13.0040   -1.6870 O   0  0  0  0  0  0  0  0  0  0  0  0
    0.9590   12.2280   -2.7520 C   0  0  0  0  0  0  0  0  0  0  0  0
    0.3730   11.1650   -2.6240 O   0  0  0  0  0  0  0  0  0  0  0  0
    1.4360   12.7720   -4.0770 C   0  0  0  0  0  0  0  0  0  0  0  0
    0.7230   14.0280   -4.4310 C   0  0  0  0  0  0  0  0  0  0  0  0
    1.2190   15.3110   -4.4900 C   0  0  0  0  0  0  0  0  0  0  0  0
   -0.9260   13.9700   -4.8350 S   0  0  0  0  0  0  0  0  0  0  0  0
    0.2360   16.2750   -4.8830 C   0  0  0  0  0  0  0  0  0  0  0  0
   -1.0030   15.6660   -5.1100 C   0  0  0  0  0  0  0  0  0  0  0  0
    0.3390   17.6710   -5.0680 C   0  0  0  0  0  0  0  0  0  0  0  0
   -2.1150   16.4030   -5.5160 C   0  0  0  0  0  0  0  0  0  0  0  0
   -3.7580   15.5050   -5.8280 Br  0  0  0  0  0  0  0  0  0  0  0  0
   -0.7730   18.4100   -5.4740 C   0  0  0  0  0  0  0  0  0  0  0  0
   -1.9880   17.7830   -5.6980 C   0  0  0  0  0  0  0  0  0  0  0  0
  1  2  1  0
  2  3  2  0
  2  4  1  0
  4  5  1  0
  5  6  2  0
  5  7  1  0
  6  8  1  0
  7  9  1  0
  8  9  2  0
  8 10  1  0
  9 11  1  0
 11 12  1  0
 10 13  2  0
 11 14  2  0
 13 14  1  0
M  END
