mac-x0228-mac-x1493
     RDKit          3D

 12 13  0  0  0  0  0  0  0  0999 V2000
   -1.0710   14.5520   -1.7500 O   0  0  0  0  0  0  0  0  0  0  0  0
   -2.0470   14.6700   -2.6670 C   0  0  0  0  0  0  0  0  0  0  0  0
   -1.7890   14.6890   -3.8560 O   0  0  0  0  0  0  0  0  0  0  0  0
   -3.4050   14.7720   -2.0730 C   0  0  0  0  0  0  0  0  0  0  0  0
   -3.6430   14.5700   -0.7060 C   0  0  0  0  0  0  0  0  0  0  0  0
   -4.4760   15.0800   -2.9320 C   0  0  0  0  0  0  0  0  0  0  0  0
   -4.9440   14.6790   -0.2470 C   0  0  0  0  0  0  0  0  0  0  0  0
   -5.7820   15.1880   -2.4440 C   0  0  0  0  0  0  0  0  0  0  0  0
   -5.9860   14.9830   -1.1020 C   0  0  0  0  0  0  0  0  0  0  0  0
   -5.4770   14.5080    1.1170 C   0  0  0  0  0  0  0  0  0  0  0  0
   -7.2080   15.0500   -0.4820 O   0  0  0  0  0  0  0  0  0  0  0  0
   -6.9710   14.4230    0.7990 C   0  0  0  0  0  0  0  0  0  0  0  0
  1  2  1  0
  2  3  2  0
  2  4  1  0
  4  5  2  0
  4  6  1  0
  5  7  1  0
  6  8  2  0
  7  9  2  0
  8  9  1  0
  7 10  1  0
  9 11  1  0
 10 12  1  0
 11 12  1  0
M  END
