mac-x0358-mac-x0206
     RDKit          3D

 23 24  0  0  0  0  0  0  0  0999 V2000
    1.9310   12.9250   -2.6100 O   0  0  0  0  0  0  0  0  0  0  0  0
    1.1940   12.1700   -3.4530 C   0  0  0  0  0  0  0  0  0  0  0  0
    0.6510   11.1650   -3.0200 O   0  0  0  0  0  0  0  0  0  0  0  0
    1.1250   12.7290   -4.8670 C   0  0  0  0  0  0  0  0  0  0  0  0
   -0.2500   13.2860   -4.9390 C   0  0  0  0  0  0  0  0  0  0  0  0
   -1.3420   12.4250   -5.0770 C   0  0  0  0  0  0  0  0  0  0  0  0
   -0.4390   14.6590   -4.8340 C   0  0  0  0  0  0  0  0  0  0  0  0
   -1.1170   11.0840   -5.1940 O   0  0  0  0  0  0  0  0  0  0  0  0
   -2.6330   12.9160   -5.0730 C   0  0  0  0  0  0  0  0  0  0  0  0
   -1.7220   15.1510   -4.8260 C   0  0  0  0  0  0  0  0  0  0  0  0
   -2.8050   14.2820   -4.9230 C   0  0  0  0  0  0  0  0  0  0  0  0
   -4.1220   14.9040   -4.8000 C   0  0  0  0  0  0  0  0  0  0  0  0
   -3.8660   15.4420   -3.3780 C   0  0  0  0  0  0  0  0  0  0  0  0
   -4.8840   15.2360   -2.3530 N   0  0  0  0  0  0  0  0  0  0  0  0
   -4.5460   15.1350   -1.1040 C   0  0  0  0  0  0  0  0  0  0  0  0
   -3.2730   15.1860   -0.5780 N   0  0  0  0  0  0  0  0  0  0  0  0
   -5.6790   14.9560   -0.1450 C   0  0  0  0  0  0  0  0  0  0  0  0
   -6.9710   14.7640   -0.6260 C   0  0  0  0  0  0  0  0  0  0  0  0
   -5.4550   14.9840    1.2400 C   0  0  0  0  0  0  0  0  0  0  0  0
   -7.2090   14.7320   -1.9680 O   0  0  0  0  0  0  0  0  0  0  0  0
   -8.0440   14.6000    0.2490 C   0  0  0  0  0  0  0  0  0  0  0  0
   -6.5460   14.8210    2.1170 C   0  0  0  0  0  0  0  0  0  0  0  0
   -7.8280   14.6300    1.6200 C   0  0  0  0  0  0  0  0  0  0  0  0
  1  2  1  0
  2  3  2  0
  2  4  1  0
  4  5  1  0
  5  6  2  0
  5  7  1  0
  6  8  1  0
  6  9  1  0
  7 10  2  0
  9 11  2  0
 10 11  1  0
 11 12  1  0
 12 13  1  0
 13 14  1  0
 14 15  2  3
 15 16  1  0
 15 17  1  0
 17 18  2  0
 17 19  1  0
 18 20  1  0
 18 21  1  0
 19 22  2  0
 21 23  2  0
 22 23  1  0
M  END
