mac-x0159-diamond-x0864_0_A
     RDKit          3D

 30 33  0  0  0  0  0  0  0  0999 V2000
   -4.4240   15.0610    0.8520 N   0  0  0  0  0  0  0  0  0  0  0  0
   -3.4180   15.4580   -0.1030 C   0  0  1  0  0  0  0  0  0  0  0  0
   -2.0500   14.8260    0.0650 C   0  0  1  0  0  0  0  0  0  0  0  0
   -3.9970   15.1420   -1.3810 N   0  0  0  0  0  0  0  0  0  0  0  0
   -3.1390   15.2780   -2.5630 C   0  0  0  0  0  0  0  0  0  0  0  0
   -1.1820   15.2300   -1.1100 C   0  0  2  0  0  0  0  0  0  0  0  0
   -1.2500   15.2230    1.2070 N   0  0  0  0  0  0  0  0  0  0  0  0
   -1.7650   14.8050   -2.4020 N   0  0  0  0  0  0  0  0  0  0  0  0
    0.0980   14.6930   -0.6560 N   0  0  0  0  0  0  0  0  0  0  0  0
    0.0690   14.8070    0.8060 C   0  0  0  0  0  0  0  0  0  0  0  0
   -0.9950   14.7870   -3.6930 C   0  0  2  0  0  0  0  0  0  0  0  0
    0.1980   13.8310   -3.8540 C   0  0  0  0  0  0  0  0  0  0  0  0
   -0.5230   16.1030   -4.2680 C   0  0  0  0  0  0  0  0  0  0  0  0
   -0.2100   12.3660   -3.7390 C   0  0  2  0  0  0  0  0  0  0  0  0
    0.7660   16.5980   -4.1790 C   0  0  0  0  0  0  0  0  0  0  0  0
   -1.4070   16.9110   -4.9740 N   0  0  0  0  0  0  0  0  0  0  0  0
    0.8000   11.6520   -2.8600 C   0  0  0  0  0  0  0  0  0  0  0  0
   -0.7780   17.9780   -5.4030 C   0  0  0  0  0  0  0  0  0  0  0  0
    0.8790   18.0910   -4.9920 S   0  0  0  0  0  0  0  0  0  0  0  0
   -0.5580   11.6420   -5.0050 N   0  0  0  0  0  0  0  0  0  0  0  0
   -1.4140   19.0520   -6.2050 C   0  0  0  0  0  0  0  0  0  0  0  0
    0.4900   10.3560   -2.5920 O   0  0  0  0  0  0  0  0  0  0  0  0
    1.7980   12.1990   -2.4140 O   0  0  0  0  0  0  0  0  0  0  0  0
   -1.7980   11.0340   -5.0000 C   0  0  0  0  0  0  0  0  0  0  0  0
    0.3270   11.4630   -6.0920 C   0  0  0  0  0  0  0  0  0  0  0  0
    1.3140   12.1530   -6.3430 O   0  0  0  0  0  0  0  0  0  0  0  0
   -2.1240   10.0870   -5.8710 C   0  0  0  0  0  0  0  0  0  0  0  0
    0.0030   10.3130   -6.9950 C   0  0  0  0  0  0  0  0  0  0  0  0
   -1.1710    9.6700   -6.8660 C   0  0  0  0  0  0  0  0  0  0  0  0
   -1.6550    8.2200   -7.9330 Br  0  0  0  0  0  0  0  0  0  0  0  0
  2  1  1  1
  2  3  1  0
  2  4  1  0
  4  5  1  0
  3  6  1  0
  3  7  1  1
  5  8  1  0
  6  8  1  0
  6  9  1  1
  7 10  1  0
  9 10  1  0
  8 11  1  0
 11 12  1  1
 11 13  1  0
 14 12  1  6
 13 15  2  0
 13 16  1  0
 14 17  1  0
 16 18  2  0
 15 19  1  0
 18 19  1  0
 14 20  1  0
 18 21  1  0
 17 22  1  0
 17 23  2  0
 20 24  1  0
 20 25  1  0
 25 26  2  0
 24 27  2  0
 25 28  1  0
 27 29  1  0
 28 29  2  0
 29 30  1  0
M  END
