mac-x0381-mac-x0180
     RDKit          3D

 27 29  0  0  0  0  0  0  0  0999 V2000
   -8.2040   13.3430    4.5360 N   0  0  0  0  0  0  0  0  0  0  0  0
   -8.1200   14.5760    3.7910 C   0  0  0  0  0  0  0  0  0  0  0  0
   -7.4730   15.4810    4.7230 N   0  0  0  0  0  0  0  0  0  0  0  0
   -7.1900   14.3430    2.5660 C   0  0  0  0  0  0  0  0  0  0  0  0
   -9.4860   15.1530    3.4070 C   0  0  0  0  0  0  0  0  0  0  0  0
   -7.8180   14.4430    1.1730 C   0  0  0  0  0  0  0  0  0  0  0  0
   -9.6340   15.9600    2.2600 C   0  0  0  0  0  0  0  0  0  0  0  0
  -10.6460   14.9100    4.1570 C   0  0  0  0  0  0  0  0  0  0  0  0
   -6.8110   14.7350    0.0950 C   0  0  0  0  0  0  0  0  0  0  0  0
  -10.8650   16.5000    1.8620 C   0  0  0  0  0  0  0  0  0  0  0  0
  -11.8870   15.4390    3.7810 C   0  0  0  0  0  0  0  0  0  0  0  0
   -7.1760   14.7970   -1.0720 O   0  0  0  0  0  0  0  0  0  0  0  0
   -5.5320   14.9020    0.5860 N   0  0  0  0  0  0  0  0  0  0  0  0
  -12.0130   16.2330    2.6350 C   0  0  0  0  0  0  0  0  0  0  0  0
  -10.9810   17.2970    0.7120 C   0  0  0  0  0  0  0  0  0  0  0  0
  -13.2500   16.7650    2.2410 C   0  0  0  0  0  0  0  0  0  0  0  0
  -12.2180   17.8220    0.3310 C   0  0  0  0  0  0  0  0  0  0  0  0
   -4.3640   14.8890   -0.1910 C   0  0  0  0  0  0  0  0  0  0  0  0
  -13.3510   17.5550    1.0950 C   0  0  0  0  0  0  0  0  0  0  0  0
   -3.0900   14.6460    0.3250 C   0  0  0  0  0  0  0  0  0  0  0  0
   -4.5220   15.1340   -1.5610 C   0  0  0  0  0  0  0  0  0  0  0  0
   -1.9770   14.6440   -0.5240 C   0  0  0  0  0  0  0  0  0  0  0  0
   -3.4190   15.1350   -2.4120 C   0  0  0  0  0  0  0  0  0  0  0  0
   -2.1500   14.8880   -1.8950 C   0  0  0  0  0  0  0  0  0  0  0  0
   -1.0060   14.9000   -2.8350 C   0  0  0  0  0  0  0  0  0  0  0  0
   -1.1310   14.9130   -4.0470 O   0  0  0  0  0  0  0  0  0  0  0  0
    0.1850   14.9070   -2.2050 O   0  0  0  0  0  0  0  0  0  0  0  0
  2  1  1  0
  2  3  1  0
  2  4  1  0
  2  5  1  0
  4  6  1  0
  5  7  2  0
  5  8  1  0
  6  9  1  0
  7 10  1  0
  8 11  2  0
  9 12  2  0
  9 13  1  0
 10 14  2  0
 11 14  1  0
 10 15  1  0
 14 16  1  0
 15 17  2  0
 13 18  1  0
 16 19  2  0
 17 19  1  0
 18 20  2  0
 18 21  1  0
 20 22  1  0
 21 23  2  0
 22 24  2  0
 23 24  1  0
 24 25  1  0
 25 26  2  0
 25 27  1  0
M  END
