mac-x0182-mac-x0588
     RDKit          3D

 29 33  0  0  0  0  0  0  0  0999 V2000
    1.6800   11.8210   -7.0690 O   0  0  0  0  0  0  0  0  0  0  0  0
    0.7790   11.4960   -6.3500 C   0  0  0  0  0  0  0  0  0  0  0  0
    0.5560   11.9690   -5.0940 N   0  0  0  0  0  0  0  0  0  0  0  0
   -0.2170   10.4620   -6.7220 C   0  0  0  0  0  0  0  0  0  0  0  0
   -0.6940   11.1770   -4.3320 S   0  0  2  0  0  0  0  0  0  0  0  0
   -1.1000   10.1790   -5.6900 C   0  0  0  0  0  0  0  0  0  0  0  0
   -0.3200    9.8020   -7.9340 C   0  0  0  0  0  0  0  0  0  0  0  0
   -1.7560   12.2560   -4.1880 N   0  0  0  0  0  0  0  0  0  0  0  0
   -0.0920   10.3710   -3.2960 O   0  0  0  0  0  0  0  0  0  0  0  0
   -2.1130    9.2470   -5.7960 C   0  0  0  0  0  0  0  0  0  0  0  0
   -1.3370    8.8480   -8.0760 C   0  0  0  0  0  0  0  0  0  0  0  0
   -1.3890   13.6530   -4.5540 C   0  0  0  0  0  0  0  0  0  0  0  0
   -2.2250    8.5740   -7.0150 C   0  0  0  0  0  0  0  0  0  0  0  0
   -0.8290   14.4880   -3.3520 C   0  0  2  0  0  0  0  0  0  0  0  0
   -1.7770   14.3990   -2.1800 N   0  0  0  0  0  0  0  0  0  0  0  0
   -0.3380   15.9060   -3.8350 C   0  0  2  0  0  0  0  0  0  0  0  0
   -3.1230   14.9780   -2.3900 C   0  0  0  0  0  0  0  0  0  0  0  0
   -1.2330   14.6590   -0.8560 C   0  0  1  0  0  0  0  0  0  0  0  0
   -1.3880   16.7150   -4.4210 O   0  0  0  0  0  0  0  0  0  0  0  0
    0.7420   15.9490   -4.9050 C   0  0  0  0  0  0  0  0  0  0  0  0
   -3.7180   15.5820   -1.1880 N   0  0  0  0  0  0  0  0  0  0  0  0
   -2.1780   14.3270    0.2890 C   0  0  2  0  0  0  0  0  0  0  0  0
   -0.1660   13.8340   -0.3730 N   0  0  0  0  0  0  0  0  0  0  0  0
    0.6940   17.4030   -5.3200 C   0  0  0  0  0  0  0  0  0  0  0  0
   -0.7770   17.7570   -5.2010 C   0  0  0  0  0  0  0  0  0  0  0  0
   -3.6250   14.7430   -0.0130 C   0  0  1  0  0  0  0  0  0  0  0  0
   -1.3990   14.9260    1.3600 N   0  0  0  0  0  0  0  0  0  0  0  0
   -0.0810   14.3930    0.9970 C   0  0  0  0  0  0  0  0  0  0  0  0
   -4.2430   15.4730    1.0860 N   0  0  0  0  0  0  0  0  0  0  0  0
  1  2  2  0
  2  3  1  0
  2  4  1  0
  5  3  1  6
  4  6  2  0
  5  6  1  0
  4  7  1  0
  5  8  2  0
  5  9  2  0
  6 10  1  0
  7 11  2  0
  8 12  1  0
 10 13  2  0
 11 13  1  0
 14 12  1  6
 14 15  1  0
 14 16  1  0
 15 17  1  0
 15 18  1  0
 16 19  1  0
 16 20  1  6
 17 21  1  0
 18 22  1  0
 18 23  1  1
 20 24  1  0
 19 25  1  0
 24 25  1  0
 21 26  1  0
 22 26  1  0
 22 27  1  1
 23 28  1  0
 27 28  1  0
 26 29  1  1
M  END
