mac-x0282-diamond-x0711_0_A
     RDKit          3D

 17 18  0  0  0  0  0  0  0  0999 V2000
   -3.1400   14.8720   -2.4900 N   0  0  0  0  0  0  0  0  0  0  0  0
   -1.7100   14.2810   -3.2700 S   0  0  0  0  0  0  0  0  0  0  0  0
   -2.2910   13.1970   -4.5520 C   0  0  0  0  0  0  0  0  0  0  0  0
   -3.2270   14.7860   -1.0710 C   0  0  0  0  0  0  0  0  0  0  0  0
   -0.9260   15.3310   -3.8930 O   0  0  0  0  0  0  0  0  0  0  0  0
   -1.0380   13.3860   -2.3390 O   0  0  0  0  0  0  0  0  0  0  0  0
   -4.2780   14.7080   -0.0700 C   0  0  0  0  0  0  0  0  0  0  0  0
   -2.0190   14.7530   -0.3920 C   0  0  0  0  0  0  0  0  0  0  0  0
   -5.7390   14.6920   -0.0470 C   0  0  0  0  0  0  0  0  0  0  0  0
   -2.2780   14.6410    0.9450 C   0  0  0  0  0  0  0  0  0  0  0  0
   -3.6100   14.6160    1.1340 N   0  0  0  0  0  0  0  0  0  0  0  0
   -0.6880   14.8050   -0.7940 C   0  0  0  0  0  0  0  0  0  0  0  0
   -6.2770   14.5630    1.2180 N   0  0  0  0  0  0  0  0  0  0  0  0
   -6.4960   14.7720   -1.0070 O   0  0  0  0  0  0  0  0  0  0  0  0
    0.2690   14.7340    0.1620 C   0  0  0  0  0  0  0  0  0  0  0  0
   -1.3920   14.5650    1.9200 N   0  0  0  0  0  0  0  0  0  0  0  0
   -0.1290   14.6110    1.4740 C   0  0  0  0  0  0  0  0  0  0  0  0
  2  1  1  0
  2  3  1  0
  1  4  1  0
  2  5  2  0
  2  6  2  0
  4  7  2  0
  4  8  1  0
  7  9  1  0
  8 10  2  0
  7 11  1  0
 10 11  1  0
  8 12  1  0
  9 13  1  0
  9 14  2  0
 12 15  2  0
 10 16  1  0
 15 17  1  0
 16 17  2  0
M  END
