mac-x0255-mac-x0358
     RDKit          3D

 20 22  0  0  0  0  0  0  0  0999 V2000
    1.2110   13.2720   -1.8210 O   0  0  0  0  0  0  0  0  0  0  0  0
    0.6620   12.4370   -2.7270 C   0  0  0  0  0  0  0  0  0  0  0  0
    0.2310   11.3370   -2.3930 O   0  0  0  0  0  0  0  0  0  0  0  0
    0.5890   12.9260   -4.1790 C   0  0  2  0  0  0  0  0  0  0  0  0
    0.3530   14.3800   -4.4940 C   0  0  0  0  0  0  0  0  0  0  0  0
   -0.7220   12.5650   -4.8540 C   0  0  0  0  0  0  0  0  0  0  0  0
    1.1060   15.4710   -4.8550 C   0  0  0  0  0  0  0  0  0  0  0  0
   -1.3140   14.7660   -4.4290 S   0  0  0  0  0  0  0  0  0  0  0  0
   -1.4760   11.4010   -4.7740 C   0  0  0  0  0  0  0  0  0  0  0  0
   -1.2230   13.6070   -5.6600 C   0  0  0  0  0  0  0  0  0  0  0  0
   -1.0310   10.3580   -4.0110 O   0  0  0  0  0  0  0  0  0  0  0  0
    0.2850   16.6220   -5.1500 C   0  0  0  0  0  0  0  0  0  0  0  0
   -1.0650   16.3410   -4.9540 C   0  0  0  0  0  0  0  0  0  0  0  0
   -2.6910   11.2950   -5.4650 C   0  0  0  0  0  0  0  0  0  0  0  0
   -2.4270   13.5090   -6.3430 C   0  0  0  0  0  0  0  0  0  0  0  0
    0.6020   17.9150   -5.5970 C   0  0  0  0  0  0  0  0  0  0  0  0
   -2.0830   17.2560   -5.1770 C   0  0  0  0  0  0  0  0  0  0  0  0
   -3.1640   12.3540   -6.2460 C   0  0  0  0  0  0  0  0  0  0  0  0
   -0.4230   18.8410   -5.8360 C   0  0  0  0  0  0  0  0  0  0  0  0
   -1.7490   18.5170   -5.6260 C   0  0  0  0  0  0  0  0  0  0  0  0
  1  2  1  0
  2  3  2  0
  4  2  1  1
  4  5  1  0
  4  6  1  0
  5  7  2  0
  5  8  1  0
  6  9  2  0
  6 10  1  0
  9 11  1  0
  7 12  1  0
  8 13  1  0
 12 13  2  0
  9 14  1  0
 10 15  2  0
 12 16  1  0
 13 17  1  0
 14 18  2  0
 15 18  1  0
 16 19  2  0
 17 20  2  0
 19 20  1  0
M  END
