mac-x0180-mac-x0302
     RDKit          3D

 16 16  0  0  0  0  0  0  0  0999 V2000
   -7.7100   14.4900    1.5370 C   0  0  0  0  0  0  0  0  0  0  0  0
   -6.7440   14.7130    0.4040 C   0  0  0  0  0  0  0  0  0  0  0  0
   -7.1500   14.7870   -0.7500 O   0  0  0  0  0  0  0  0  0  0  0  0
   -5.4250   14.8210    0.8350 N   0  0  0  0  0  0  0  0  0  0  0  0
   -4.3000   14.8360   -0.0200 C   0  0  0  0  0  0  0  0  0  0  0  0
   -2.9890   14.6500    0.4150 C   0  0  0  0  0  0  0  0  0  0  0  0
   -4.5300   15.0470   -1.3900 C   0  0  0  0  0  0  0  0  0  0  0  0
   -1.9240   14.6670   -0.5020 C   0  0  0  0  0  0  0  0  0  0  0  0
   -3.4670   15.0640   -2.3010 C   0  0  0  0  0  0  0  0  0  0  0  0
   -2.1590   14.8730   -1.8750 C   0  0  0  0  0  0  0  0  0  0  0  0
   -3.7290   15.2740   -3.6240 O   0  0  0  0  0  0  0  0  0  0  0  0
   -1.0050   14.8830   -2.8220 C   0  0  0  0  0  0  0  0  0  0  0  0
   -1.1210   15.3610   -3.9470 O   0  0  0  0  0  0  0  0  0  0  0  0
    0.3440   14.2970   -2.4560 C   0  0  0  0  0  0  0  0  0  0  0  0
    1.2180   14.3490   -3.4730 O   0  0  0  0  0  0  0  0  0  0  0  0
    0.6320   13.8210   -1.3820 O   0  0  0  0  0  0  0  0  0  0  0  0
  1  2  1  0
  2  3  2  0
  2  4  1  0
  4  5  1  0
  5  6  2  0
  5  7  1  0
  6  8  1  0
  7  9  2  0
  8 10  2  0
  9 10  1  0
  9 11  1  0
 10 12  1  0
 12 13  2  0
 12 14  1  0
 14 15  1  0
 14 16  2  0
M  END
