mac-x0228-mac-x0451
     RDKit          3D

 13 14  0  0  0  0  0  0  0  0999 V2000
   -1.1320   14.5790   -1.6320 O   0  0  0  0  0  0  0  0  0  0  0  0
   -2.1030   14.6800   -2.5590 C   0  0  0  0  0  0  0  0  0  0  0  0
   -1.8860   14.6770   -3.7610 O   0  0  0  0  0  0  0  0  0  0  0  0
   -3.4730   14.7990   -1.9910 C   0  0  0  0  0  0  0  0  0  0  0  0
   -3.7610   14.6090   -0.6170 C   0  0  0  0  0  0  0  0  0  0  0  0
   -4.4970   15.1140   -2.8950 C   0  0  0  0  0  0  0  0  0  0  0  0
   -5.0930   14.7440   -0.2050 C   0  0  0  0  0  0  0  0  0  0  0  0
   -5.8150   15.2450   -2.4550 C   0  0  0  0  0  0  0  0  0  0  0  0
   -6.0850   15.0590   -1.1240 C   0  0  0  0  0  0  0  0  0  0  0  0
   -5.7370   14.6030    1.1400 C   0  0  2  0  0  0  0  0  0  0  0  0
   -5.4360   13.3810    1.8330 N   0  0  0  0  0  0  0  0  0  0  0  0
   -7.3440   15.1650   -0.5940 O   0  0  0  0  0  0  0  0  0  0  0  0
   -7.2210   14.6010    0.7240 C   0  0  0  0  0  0  0  0  0  0  0  0
  1  2  1  0
  2  3  2  0
  2  4  1  0
  4  5  2  0
  4  6  1  0
  5  7  1  0
  6  8  2  0
  7  9  2  0
  8  9  1  0
  7 10  1  0
 10 11  1  6
  9 12  1  0
 10 13  1  0
 12 13  1  0
M  END
