mac-x1493-mac-x0180
     RDKit          3D

 18 19  0  0  0  0  0  0  0  0999 V2000
   -1.5390   14.5070   -1.8390 O   0  0  0  0  0  0  0  0  0  0  0  0
   -2.5420   14.6280   -2.7610 C   0  0  0  0  0  0  0  0  0  0  0  0
   -2.3450   14.8910   -3.9370 O   0  0  0  0  0  0  0  0  0  0  0  0
   -0.2710   14.8860   -2.4880 O   0  0  0  0  0  0  0  0  0  0  0  0
   -3.8840   14.4120   -2.1540 C   0  0  0  0  0  0  0  0  0  0  0  0
   -4.2250   14.5440   -0.8180 C   0  0  0  0  0  0  0  0  0  0  0  0
   -4.9400   14.0500   -2.9840 C   0  0  0  0  0  0  0  0  0  0  0  0
   -3.4040   14.9230    0.1870 N   0  0  0  0  0  0  0  0  0  0  0  0
   -5.5250   14.3270   -0.3280 C   0  0  0  0  0  0  0  0  0  0  0  0
   -6.2230   13.8350   -2.5490 N   0  0  0  0  0  0  0  0  0  0  0  0
   -4.2790   15.7840    0.7510 C   0  0  0  0  0  0  0  0  0  0  0  0
   -6.5040   13.9770   -1.2390 C   0  0  0  0  0  0  0  0  0  0  0  0
   -5.8840   14.4550    1.0460 C   0  0  0  0  0  0  0  0  0  0  0  0
   -4.3800   15.6990    2.2140 C   0  0  0  0  0  0  0  0  0  0  0  0
   -4.9780   16.4990    0.0650 O   0  0  0  0  0  0  0  0  0  0  0  0
   -7.7990   13.7740   -0.7710 C   0  0  0  0  0  0  0  0  0  0  0  0
   -7.1690   14.2490    1.5050 C   0  0  0  0  0  0  0  0  0  0  0  0
   -8.1400   13.9070    0.5880 C   0  0  0  0  0  0  0  0  0  0  0  0
  1  2  1  0
  2  3  2  0
  1  4  1  0
  2  5  1  0
  5  6  2  0
  5  7  1  0
  6  8  1  0
  6  9  1  0
  7 10  2  0
  8 11  1  0
  9 12  2  0
 10 12  1  0
  9 13  1  0
 11 14  1  0
 11 15  2  0
 12 16  1  0
 13 17  2  0
 16 18  2  0
 17 18  1  0
M  END
