mac-x0572-diamond-x0950_1_A
     RDKit          3D

 22 23  0  0  0  0  0  0  0  0999 V2000
   -8.0260   14.5470    3.0890 C   0  0  0  0  0  0  0  0  0  0  0  0
   -7.2080   14.6600    1.8250 C   0  0  0  0  0  0  0  0  0  0  0  0
   -5.8600   14.7570    2.0450 N   0  0  0  0  0  0  0  0  0  0  0  0
   -7.7690   14.6670    0.6080 C   0  0  0  0  0  0  0  0  0  0  0  0
   -9.1270   14.5690    0.3900 O   0  0  0  0  0  0  0  0  0  0  0  0
   -6.8720   14.7960   -0.5790 C   0  0  0  0  0  0  0  0  0  0  0  0
   -5.0470   15.0710    1.0850 C   0  0  0  0  0  0  0  0  0  0  0  0
   -7.3150   14.4470   -1.6700 O   0  0  0  0  0  0  0  0  0  0  0  0
   -5.4790   15.3630   -0.3380 C   0  0  1  0  0  0  0  0  0  0  0  0
   -3.6140   15.1450    1.4060 C   0  0  0  0  0  0  0  0  0  0  0  0
   -2.7300   15.0150    0.4230 C   0  0  0  0  0  0  0  0  0  0  0  0
   -4.4140   14.9480   -1.3260 C   0  0  0  0  0  0  0  0  0  0  0  0
   -3.1200   14.7870   -0.9580 C   0  0  0  0  0  0  0  0  0  0  0  0
   -2.0230   14.3540   -1.9170 C   0  0  0  0  0  0  0  0  0  0  0  0
   -0.8860   13.5340   -1.2680 C   0  0  0  0  0  0  0  0  0  0  0  0
    0.5220   14.0390   -1.6030 C   0  0  0  0  0  0  0  0  0  0  0  0
    1.3780   12.9500   -2.0280 O   0  0  0  0  0  0  0  0  0  0  0  0
    0.9040   12.1160   -2.9920 C   0  0  0  0  0  0  0  0  0  0  0  0
    1.3400   12.5400   -4.4050 C   0  0  2  0  0  0  0  0  0  0  0  0
    0.2150   11.1200   -2.7780 O   0  0  0  0  0  0  0  0  0  0  0  0
    1.0580   14.0020   -4.7150 C   0  0  0  0  0  0  0  0  0  0  0  0
    0.6720   11.7510   -5.3950 O   0  0  0  0  0  0  0  0  0  0  0  0
  1  2  1  0
  2  3  1  0
  2  4  2  0
  4  5  1  0
  4  6  1  0
  3  7  2  0
  6  8  2  0
  6  9  1  0
  7  9  1  0
  7 10  1  0
 10 11  2  0
  9 12  1  6
 11 13  1  0
 12 13  2  0
 13 14  1  0
 14 15  1  0
 15 16  1  0
 16 17  1  0
 17 18  1  0
 18 19  1  0
 18 20  2  0
 19 21  1  6
 19 22  1  0
M  END
