mac-x0398-diamond-x0962_0_A
     RDKit          3D

 11 11  0  0  0  0  0  0  0  0999 V2000
   -6.3250   14.8800    2.1050 N   0  0  0  0  0  0  0  0  0  0  0  0
   -5.5870   14.9440    0.9190 C   0  0  0  0  0  0  0  0  0  0  0  0
   -4.1870   14.9100    0.9380 C   0  0  0  0  0  0  0  0  0  0  0  0
   -6.2520   15.0460   -0.3030 C   0  0  0  0  0  0  0  0  0  0  0  0
   -5.5360   15.1080   -1.4920 C   0  0  0  0  0  0  0  0  0  0  0  0
   -3.4670   14.9700   -0.2580 C   0  0  0  0  0  0  0  0  0  0  0  0
   -6.2110   15.2050   -2.6730 O   0  0  0  0  0  0  0  0  0  0  0  0
   -4.1450   15.0670   -1.4820 C   0  0  0  0  0  0  0  0  0  0  0  0
   -3.3570   15.1180   -2.7300 C   0  0  0  0  0  0  0  0  0  0  0  0
   -3.8340   15.1490   -3.8460 O   0  0  0  0  0  0  0  0  0  0  0  0
   -2.0320   15.1080   -2.5330 O   0  0  0  0  0  0  0  0  0  0  0  0
  1  2  1  0
  2  3  2  0
  2  4  1  0
  4  5  2  0
  3  6  1  0
  5  7  1  0
  5  8  1  0
  6  8  2  0
  8  9  1  0
  9 10  2  0
  9 11  1  0
M  END
