mac-x0226-mac-x0305
     RDKit          3D

 23 25  0  0  0  0  0  0  0  0999 V2000
    0.0350   12.5670   -1.5520 O   0  0  0  0  0  0  0  0  0  0  0  0
    0.2230   11.5280   -2.4460 C   0  0  0  0  0  0  0  0  0  0  0  0
    0.2260   10.3510   -2.1170 O   0  0  0  0  0  0  0  0  0  0  0  0
   -0.2950   13.8530   -1.9290 C   0  0  0  0  0  0  0  0  0  0  0  0
    0.3130   14.5300   -2.7320 O   0  0  0  0  0  0  0  0  0  0  0  0
    0.4430   11.7450   -3.8910 C   0  0  0  0  0  0  0  0  0  0  0  0
   -1.5560   14.3770   -1.2200 C   0  0  0  0  0  0  0  0  0  0  0  0
    1.1870   12.6980   -4.6340 C   0  0  0  0  0  0  0  0  0  0  0  0
   -0.0960   10.9360   -4.8800 C   0  0  0  0  0  0  0  0  0  0  0  0
   -1.7090   14.5600    0.1800 C   0  0  0  0  0  0  0  0  0  0  0  0
   -2.5840   14.6880   -2.0830 N   0  0  0  0  0  0  0  0  0  0  0  0
   -0.7390   14.2790    1.1010 O   0  0  0  0  0  0  0  0  0  0  0  0
    1.1140   12.4870   -5.9620 N   0  0  0  0  0  0  0  0  0  0  0  0
    0.3150   11.3850   -6.1080 N   0  0  0  0  0  0  0  0  0  0  0  0
   -2.9320   15.0650    0.6610 C   0  0  0  0  0  0  0  0  0  0  0  0
   -3.7410   15.1740   -1.5770 C   0  0  0  0  0  0  0  0  0  0  0  0
   -0.0110   10.8090   -7.3850 C   0  0  0  0  0  0  0  0  0  0  0  0
   -3.9600   15.3770   -0.2280 C   0  0  0  0  0  0  0  0  0  0  0  0
   -1.1710   10.0370   -7.5380 C   0  0  0  0  0  0  0  0  0  0  0  0
    0.7980   10.9860   -8.4940 C   0  0  0  0  0  0  0  0  0  0  0  0
   -1.4860    9.4710   -8.7820 C   0  0  0  0  0  0  0  0  0  0  0  0
    0.4960   10.4300   -9.7350 C   0  0  0  0  0  0  0  0  0  0  0  0
   -0.6540    9.6670   -9.8810 C   0  0  0  0  0  0  0  0  0  0  0  0
  1  2  1  0
  2  3  2  0
  1  4  1  0
  4  5  2  0
  2  6  1  0
  4  7  1  0
  6  8  1  0
  6  9  2  0
  7 10  2  0
  7 11  1  0
 10 12  1  0
  8 13  2  0
  9 14  1  0
 13 14  1  0
 10 15  1  0
 11 16  2  0
 14 17  1  0
 15 18  2  0
 16 18  1  0
 17 19  2  0
 17 20  1  0
 19 21  1  0
 20 22  2  0
 21 23  2  0
 22 23  1  0
M  END
