mac-x0411-mac-x0587
     RDKit          3D

 23 24  0  0  0  0  0  0  0  0999 V2000
    0.5800    9.2650   -7.8950 Cl  0  0  0  0  0  0  0  0  0  0  0  0
   -0.6290    9.8730   -6.8150 C   0  0  0  0  0  0  0  0  0  0  0  0
   -0.3990   10.9900   -5.9700 C   0  0  0  0  0  0  0  0  0  0  0  0
   -1.8490    9.2120   -6.8070 C   0  0  0  0  0  0  0  0  0  0  0  0
    0.8510   11.5640   -6.0620 O   0  0  0  0  0  0  0  0  0  0  0  0
   -1.4230   11.4650   -5.0810 C   0  0  0  0  0  0  0  0  0  0  0  0
   -2.8590    9.6480   -5.9650 C   0  0  0  0  0  0  0  0  0  0  0  0
   -1.3170   12.6530   -4.0780 C   0  0  0  0  0  0  0  0  0  0  0  0
    1.1640   12.4380   -4.9950 C   0  0  0  0  0  0  0  0  0  0  0  0
   -2.6480   10.7510   -5.1220 C   0  0  0  0  0  0  0  0  0  0  0  0
    0.9820   11.8900   -3.5800 C   0  0  0  0  0  0  0  0  0  0  0  0
   -1.2980   14.2020   -4.3880 C   0  0  2  0  0  0  0  0  0  0  0  0
    1.5620   12.6780   -2.6400 O   0  0  0  0  0  0  0  0  0  0  0  0
    0.4050   10.8530   -3.2870 O   0  0  0  0  0  0  0  0  0  0  0  0
    0.0400   14.9600   -4.4090 C   0  0  0  0  0  0  0  0  0  0  0  0
   -2.4460   14.9470   -3.6730 C   0  0  0  0  0  0  0  0  0  0  0  0
   -3.1040   15.7030   -4.3870 O   0  0  0  0  0  0  0  0  0  0  0  0
   -2.7730   14.8160   -2.3310 N   0  0  0  0  0  0  0  0  0  0  0  0
   -4.0750   15.0800   -1.7300 C   0  0  0  0  0  0  0  0  0  0  0  0
   -1.8240   14.7640   -1.2780 C   0  0  0  0  0  0  0  0  0  0  0  0
   -0.6030   14.8080   -1.3150 O   0  0  0  0  0  0  0  0  0  0  0  0
   -3.8390   15.1720   -0.2310 C   0  0  0  0  0  0  0  0  0  0  0  0
   -2.5160   14.6680   -0.0790 N   0  0  0  0  0  0  0  0  0  0  0  0
  1  2  1  0
  2  3  2  0
  2  4  1  0
  3  5  1  0
  3  6  1  0
  4  7  2  0
  6  8  1  0
  5  9  1  0
  6 10  2  0
  7 10  1  0
  9 11  1  0
  8 12  1  0
 11 13  1  0
 11 14  2  0
 12 15  1  1
 12 16  1  0
 16 17  2  0
 16 18  1  0
 18 19  1  0
 18 20  1  0
 20 21  2  0
 19 22  1  0
 20 23  1  0
 22 23  1  0
M  END
