mac-x0402-mac-x0337
     RDKit          3D

 22 24  0  0  0  0  0  0  0  0999 V2000
   -0.3370   15.9630   -2.6180 Cl  0  0  0  0  0  0  0  0  0  0  0  0
   -1.7430   15.3040   -1.7400 C   0  0  2  0  0  0  0  0  0  0  0  0
   -2.9720   15.8050   -2.4450 C   0  0  0  0  0  0  0  0  0  0  0  0
   -1.7100   15.6290   -0.2170 C   0  0  0  0  0  0  0  0  0  0  0  0
   -3.1240   15.7530    0.4080 C   0  0  1  0  0  0  0  0  0  0  0  0
   -4.1340   15.7050   -1.8390 C   0  0  0  0  0  0  0  0  0  0  0  0
   -4.1290   15.0880   -0.4970 C   0  0  2  0  0  0  0  0  0  0  0  0
   -3.3650   14.6990    1.8440 S   0  0  0  0  0  0  0  0  0  0  0  0
   -5.1220   14.3880    1.4570 C   0  0  2  0  0  0  0  0  0  0  0  0
   -5.4240   14.9760    0.1410 N   0  0  0  0  0  0  0  0  0  0  0  0
   -5.9890   14.9880    2.4450 N   0  0  0  0  0  0  0  0  0  0  0  0
   -6.1350   14.1000   -0.6910 N   0  0  0  0  0  0  0  0  0  0  0  0
   -4.9630   13.5480   -1.8310 S   0  0  0  0  0  0  0  0  0  0  0  0
   -5.2330   14.1520   -3.1200 O   0  0  0  0  0  0  0  0  0  0  0  0
   -3.6560   13.6590   -1.2130 O   0  0  0  0  0  0  0  0  0  0  0  0
   -5.1930   11.8220   -1.9490 C   0  0  0  0  0  0  0  0  0  0  0  0
   -4.2270   11.0730   -2.6110 C   0  0  0  0  0  0  0  0  0  0  0  0
   -6.3200   11.2420   -1.3850 C   0  0  0  0  0  0  0  0  0  0  0  0
   -4.3960    9.7030   -2.7150 C   0  0  0  0  0  0  0  0  0  0  0  0
   -6.4870    9.8690   -1.4910 C   0  0  0  0  0  0  0  0  0  0  0  0
   -5.5230    9.0960   -2.1580 C   0  0  0  0  0  0  0  0  0  0  0  0
   -5.6980    7.6120   -2.2720 C   0  0  0  0  0  0  0  0  0  0  0  0
  2  1  1  6
  2  3  1  0
  2  4  1  0
  5  4  1  6
  3  6  2  0
  5  7  1  0
  7  6  1  6
  5  8  1  0
  8  9  1  0
  7 10  1  0
  9 10  1  0
  9 11  1  1
 10 12  1  0
 13 12  1  0
 13 14  2  0
 13 15  2  0
 13 16  1  0
 16 17  2  0
 16 18  1  0
 17 19  1  0
 18 20  2  0
 19 21  2  0
 20 21  1  0
 21 22  1  0
M  END
