mac-x0283-diamond-x0844_0_A
     RDKit          3D

 12 13  0  0  0  0  0  0  0  0999 V2000
   -6.8760   14.7930    2.7900 N   0  0  0  0  0  0  0  0  0  0  0  0
   -6.8150   14.8240    1.4460 C   0  0  0  0  0  0  0  0  0  0  0  0
   -7.9020   14.7540    0.7240 N   0  0  0  0  0  0  0  0  0  0  0  0
   -5.6120   14.9580    0.6070 C   0  0  0  0  0  0  0  0  0  0  0  0
   -7.5270   14.8470   -0.6430 O   0  0  0  0  0  0  0  0  0  0  0  0
   -6.1870   15.2860   -0.7010 C   0  0  2  0  0  0  0  0  0  0  0  0
   -4.2930   14.8340    0.8410 C   0  0  0  0  0  0  0  0  0  0  0  0
   -5.3400   14.6160   -1.7090 C   0  0  0  0  0  0  0  0  0  0  0  0
   -3.3980   14.9930   -0.2950 C   0  0  0  0  0  0  0  0  0  0  0  0
   -5.8600   13.9010   -2.5370 O   0  0  0  0  0  0  0  0  0  0  0  0
   -3.8640   14.8770   -1.5610 C   0  0  0  0  0  0  0  0  0  0  0  0
   -2.8330   15.0000   -3.0970 Br  0  0  0  0  0  0  0  0  0  0  0  0
  1  2  1  0
  2  3  2  0
  2  4  1  0
  3  5  1  0
  4  6  1  0
  6  5  1  1
  4  7  2  0
  6  8  1  0
  7  9  1  0
  8 10  2  0
  8 11  1  0
  9 11  2  0
 11 12  1  0
M  END
