mac-x0587-mac-x0142
     RDKit          3D

 27 30  0  0  0  0  0  0  0  0999 V2000
   -2.2900   15.7830   -5.1970 C   0  0  0  0  0  0  0  0  0  0  0  0
   -2.3630   14.6250   -4.2010 C   0  0  2  0  0  0  0  0  0  0  0  0
   -2.5960   12.9640   -5.0400 S   0  0  0  0  0  0  0  0  0  0  0  0
   -3.5340   14.8830   -3.2450 C   0  0  0  0  0  0  0  0  0  0  0  0
   -2.2380   11.7500   -3.7040 C   0  0  0  0  0  0  0  0  0  0  0  0
   -4.6860   14.9370   -3.6750 O   0  0  0  0  0  0  0  0  0  0  0  0
   -3.2420   15.0520   -1.9100 N   0  0  0  0  0  0  0  0  0  0  0  0
   -0.9170   11.0040   -3.8120 C   0  0  0  0  0  0  0  0  0  0  0  0
   -4.1080   15.6860   -1.0250 C   0  0  0  0  0  0  0  0  0  0  0  0
   -2.0460   14.6030   -1.1640 C   0  0  2  0  0  0  0  0  0  0  0  0
   -0.4990   10.3770   -4.7680 O   0  0  0  0  0  0  0  0  0  0  0  0
   -0.1650   11.0690   -2.6830 O   0  0  0  0  0  0  0  0  0  0  0  0
   -2.0450   13.2190   -0.9660 O   0  0  0  0  0  0  0  0  0  0  0  0
   -3.5520   15.7640    0.1900 C   0  0  0  0  0  0  0  0  0  0  0  0
   -2.2960   15.1820    0.1760 N   0  0  0  0  0  0  0  0  0  0  0  0
   -0.6070   15.2390   -1.6030 C   0  0  2  0  0  0  0  0  0  0  0  0
   -0.0200   14.9520   -2.9160 N   0  0  0  0  0  0  0  0  0  0  0  0
    0.4640   14.9250   -0.6280 N   0  0  0  0  0  0  0  0  0  0  0  0
   -1.2240   15.8120    0.8440 N   0  0  0  0  0  0  0  0  0  0  0  0
   -0.5730   13.7560   -3.5270 C   0  0  0  0  0  0  0  0  0  0  0  0
    1.4350   15.0260   -3.0480 C   0  0  0  0  0  0  0  0  0  0  0  0
    0.0050   15.0120    0.7510 C   0  0  0  0  0  0  0  0  0  0  0  0
    1.8670   13.8240   -3.8450 C   0  0  0  0  0  0  0  0  0  0  0  0
   -0.1980   13.6070   -5.0200 C   0  0  0  0  0  0  0  0  0  0  0  0
    3.1310   13.0580   -3.5370 C   0  0  0  0  0  0  0  0  0  0  0  0
    1.8150   12.5040   -3.1140 C   0  0  0  0  0  0  0  0  0  0  0  0
    1.2780   13.8190   -5.2200 C   0  0  0  0  0  0  0  0  0  0  0  0
  2  1  1  6
  2  3  1  0
  2  4  1  0
  3  5  1  0
  4  6  2  0
  4  7  1  0
  5  8  1  0
  7  9  1  0
  7 10  1  0
  8 11  2  0
  8 12  1  0
 10 13  1  1
  9 14  2  0
 10 15  1  0
 14 15  1  0
 10 16  1  0
 16 17  1  6
 16 18  1  0
 15 19  1  0
 17 20  1  0
 17 21  1  0
 18 22  1  0
 19 22  1  0
 23 21  1  0
 20 24  1  0
 23 25  1  0
 23 26  1  0
 25 26  1  0
 23 27  1  0
 24 27  1  0
M  END
