mac-x0178-mac-x0455
     RDKit          3D

 23 24  0  0  0  0  0  0  0  0999 V2000
   -0.3820   18.6490   -6.7430 N   0  0  0  0  0  0  0  0  0  0  0  0
   -1.6100   17.9100   -5.8680 S   0  0  0  0  0  0  0  0  0  0  0  0
   -2.5530   17.3310   -6.7880 O   0  0  0  0  0  0  0  0  0  0  0  0
   -1.9950   18.8540   -4.8410 O   0  0  0  0  0  0  0  0  0  0  0  0
   -0.7320   16.6100   -5.0620 C   0  0  0  0  0  0  0  0  0  0  0  0
    0.5370   16.8490   -4.5280 C   0  0  0  0  0  0  0  0  0  0  0  0
   -1.3260   15.3650   -4.9640 C   0  0  0  0  0  0  0  0  0  0  0  0
    1.2070   15.8250   -3.8650 C   0  0  0  0  0  0  0  0  0  0  0  0
   -0.6500   14.3580   -4.3030 C   0  0  0  0  0  0  0  0  0  0  0  0
    0.6210   14.5740   -3.7290 C   0  0  0  0  0  0  0  0  0  0  0  0
    1.2840   13.4610   -2.9570 C   0  0  1  0  0  0  0  0  0  0  0  0
    0.1790   13.1730   -1.9680 C   0  0  0  0  0  0  0  0  0  0  0  0
    1.5580   12.3080   -3.7570 O   0  0  0  0  0  0  0  0  0  0  0  0
   -1.2300   13.1880   -2.5880 C   0  0  1  0  0  0  0  0  0  0  0  0
    0.3670   12.9960   -0.7680 O   0  0  0  0  0  0  0  0  0  0  0  0
   -2.2930   12.9230   -1.5310 C   0  0  0  0  0  0  0  0  0  0  0  0
   -1.5040   14.5620   -2.9490 O   0  0  0  0  0  0  0  0  0  0  0  0
   -1.2660   12.3370   -3.8710 C   0  0  0  0  0  0  0  0  0  0  0  0
   -2.2270   11.3410   -4.0820 C   0  0  0  0  0  0  0  0  0  0  0  0
   -0.3060   12.5310   -4.9070 C   0  0  0  0  0  0  0  0  0  0  0  0
   -2.2330   10.5770   -5.2500 C   0  0  0  0  0  0  0  0  0  0  0  0
   -0.3120   11.7690   -6.0700 C   0  0  0  0  0  0  0  0  0  0  0  0
   -1.2770   10.7900   -6.2430 C   0  0  0  0  0  0  0  0  0  0  0  0
  2  1  1  0
  2  3  2  0
  2  4  2  0
  2  5  1  0
  5  6  2  0
  5  7  1  0
  6  8  1  0
  7  9  2  0
  8 10  2  0
  9 10  1  0
 10 11  1  0
 11 12  1  0
 11 13  1  6
 12 14  1  0
 12 15  2  0
 14 16  1  1
 14 17  1  0
 14 18  1  0
 18 19  2  0
 18 20  1  0
 19 21  1  0
 20 22  2  0
 21 23  2  0
 22 23  1  0
M  END
