mac-x0415-mac-x0346
     RDKit          3D

 27 29  0  0  0  0  0  0  0  0999 V2000
   -0.0120   11.0390   -3.0680 O   0  0  0  0  0  0  0  0  0  0  0  0
    0.7250   12.1690   -3.1260 C   0  0  0  0  0  0  0  0  0  0  0  0
    1.1900   12.6920   -2.1250 O   0  0  0  0  0  0  0  0  0  0  0  0
    0.9070   12.7220   -4.5270 C   0  0  0  0  0  0  0  0  0  0  0  0
    0.6920   14.1750   -4.4930 C   0  0  0  0  0  0  0  0  0  0  0  0
    1.7640   15.1560   -4.4280 C   0  0  0  0  0  0  0  0  0  0  0  0
   -0.3730   14.9740   -4.5210 C   0  0  0  0  0  0  0  0  0  0  0  0
    1.4460   16.4090   -4.4230 N   0  0  0  0  0  0  0  0  0  0  0  0
    0.0150   16.4020   -4.4010 C   0  0  1  0  0  0  0  0  0  0  0  0
   -1.7770   14.6950   -4.6100 C   0  0  0  0  0  0  0  0  0  0  0  0
   -0.7640   17.3000   -5.2930 C   0  0  0  0  0  0  0  0  0  0  0  0
   -2.5820   15.6450   -5.1460 C   0  0  0  0  0  0  0  0  0  0  0  0
   -3.9430   15.5510   -5.3040 O   0  0  0  0  0  0  0  0  0  0  0  0
   -2.0150   16.9230   -5.6310 C   0  0  0  0  0  0  0  0  0  0  0  0
   -4.6270   14.3330   -4.9530 C   0  0  0  0  0  0  0  0  0  0  0  0
   -5.0900   14.2820   -3.4800 C   0  0  0  0  0  0  0  0  0  0  0  0
   -4.4090   15.3060   -2.7390 O   0  0  0  0  0  0  0  0  0  0  0  0
   -4.1880   15.1760   -1.3750 C   0  0  0  0  0  0  0  0  0  0  0  0
   -5.2590   15.0950   -0.4550 C   0  0  0  0  0  0  0  0  0  0  0  0
   -2.8790   15.1340   -0.8930 C   0  0  0  0  0  0  0  0  0  0  0  0
   -6.7060   15.1060   -0.8410 C   0  0  0  0  0  0  0  0  0  0  0  0
   -2.6050   15.0320    0.4720 C   0  0  0  0  0  0  0  0  0  0  0  0
   -4.9580   14.9960    0.9240 C   0  0  0  0  0  0  0  0  0  0  0  0
   -7.6850   14.9890    0.1200 N   0  0  0  0  0  0  0  0  0  0  0  0
   -7.0290   15.2040   -2.0180 O   0  0  0  0  0  0  0  0  0  0  0  0
   -3.6370   14.9690    1.3740 C   0  0  0  0  0  0  0  0  0  0  0  0
   -7.5020   14.0340    1.1470 O   0  0  0  0  0  0  0  0  0  0  0  0
  1  2  1  0
  2  3  2  0
  2  4  1  0
  4  5  1  0
  5  6  1  0
  5  7  2  0
  6  8  2  0
  7  9  1  0
  8  9  1  0
  7 10  1  0
  9 11  1  6
 10 12  2  0
 12 13  1  0
 11 14  2  0
 12 14  1  0
 13 15  1  0
 15 16  1  0
 16 17  1  0
 17 18  1  0
 18 19  2  0
 18 20  1  0
 19 21  1  0
 20 22  2  0
 19 23  1  0
 21 24  1  0
 21 25  2  0
 22 26  1  0
 23 26  2  0
 24 27  1  0
M  END
