mac-x0137-mac-x0546
     RDKit          3D

 31 35  0  0  0  0  0  0  0  0999 V2000
   -3.3960   12.7330   -3.7150 F   0  0  0  0  0  0  0  0  0  0  0  0
   -2.5050   13.4760   -4.4200 C   0  0  2  0  0  0  0  0  0  0  0  0
   -1.5340   12.5060   -5.0750 C   0  0  0  0  0  0  0  0  0  0  0  0
   -1.8320   14.4820   -3.4570 C   0  0  0  0  0  0  0  0  0  0  0  0
   -1.1380   13.7850   -2.3640 N   0  0  0  0  0  0  0  0  0  0  0  0
   -0.5400   12.0510   -4.0280 C   0  0  1  0  0  0  0  0  0  0  0  0
    0.8030   12.7060   -4.1890 C   0  0  2  0  0  0  0  0  0  0  0  0
   -1.0690   12.3310   -2.6150 C   0  0  0  0  0  0  0  0  0  0  0  0
   -1.3110   14.1960   -1.0450 C   0  0  0  0  0  0  0  0  0  0  0  0
    1.4030   12.2170   -2.9150 C   0  0  0  0  0  0  0  0  0  0  0  0
   -0.2980   14.0610   -0.1120 N   0  0  0  0  0  0  0  0  0  0  0  0
   -2.4500   14.7330   -0.5860 C   0  0  0  0  0  0  0  0  0  0  0  0
    0.8370   14.1970   -4.3580 C   0  0  0  0  0  0  0  0  0  0  0  0
    2.2050   12.7490   -2.1920 O   0  0  0  0  0  0  0  0  0  0  0  0
    0.8610   11.0110   -2.6270 O   0  0  0  0  0  0  0  0  0  0  0  0
   -0.4890   14.3990    1.1990 C   0  0  0  0  0  0  0  0  0  0  0  0
   -2.5670   15.1070    0.8370 C   0  0  0  0  0  0  0  0  0  0  0  0
   -3.7300   15.0890   -1.1190 C   0  0  0  0  0  0  0  0  0  0  0  0
   -0.0180   15.0270   -5.2450 C   0  0  1  0  0  0  0  0  0  0  0  0
    1.6690   15.0220   -3.7220 C   0  0  0  0  0  0  0  0  0  0  0  0
   -1.5490   14.9050    1.7130 N   0  0  0  0  0  0  0  0  0  0  0  0
   -3.7280   15.6140    1.1270 N   0  0  0  0  0  0  0  0  0  0  0  0
   -4.4090   15.5960   -0.0820 C   0  0  0  0  0  0  0  0  0  0  0  0
   -1.5080   15.0950   -5.2120 C   0  0  0  0  0  0  0  0  0  0  0  0
    0.5170   16.3740   -4.8370 C   0  0  0  0  0  0  0  0  0  0  0  0
    1.4780   16.3480   -4.0020 N   0  0  0  0  0  0  0  0  0  0  0  0
   -2.1510   16.2600   -5.4170 C   0  0  0  0  0  0  0  0  0  0  0  0
   -0.0860   17.5900   -5.3960 C   0  0  0  0  0  0  0  0  0  0  0  0
   -3.5000   16.4410   -5.4440 O   0  0  0  0  0  0  0  0  0  0  0  0
   -1.4010   17.4880   -5.6580 C   0  0  0  0  0  0  0  0  0  0  0  0
   -4.3060   15.3990   -5.9950 C   0  0  0  0  0  0  0  0  0  0  0  0
  2  1  1  1
  2  3  1  0
  2  4  1  0
  4  5  1  0
  6  3  1  6
  6  7  1  0
  5  8  1  0
  6  8  1  0
  5  9  1  0
  7 10  1  1
  9 11  1  0
  9 12  2  0
  7 13  1  0
 10 14  2  0
 10 15  1  0
 11 16  1  0
 12 17  1  0
 12 18  1  0
 13 19  1  0
 13 20  2  0
 16 21  2  0
 17 21  1  0
 17 22  2  0
 18 23  2  0
 22 23  1  0
 19 24  1  1
 19 25  1  0
 20 26  1  0
 25 26  2  0
 24 27  2  0
 25 28  1  0
 27 29  1  0
 27 30  1  0
 28 30  2  0
 29 31  1  0
M  END
