mac-x0137-diamond-x0711_0_A
     RDKit          3D

 22 25  0  0  0  0  0  0  0  0999 V2000
   -1.6270   14.9400   -3.7860 O   0  0  0  0  0  0  0  0  0  0  0  0
   -2.4260   13.6910   -3.3610 S   0  0  0  0  0  0  0  0  0  0  0  0
   -3.7460   14.3460   -2.5270 N   0  0  0  0  0  0  0  0  0  0  0  0
   -0.3240   14.5950   -3.6940 C   0  0  1  0  0  0  0  0  0  0  0  0
   -2.7670   13.1580   -4.6340 O   0  0  0  0  0  0  0  0  0  0  0  0
   -1.5940   12.9440   -2.4280 O   0  0  0  0  0  0  0  0  0  0  0  0
   -0.0990   14.1100   -2.3240 N   0  0  0  0  0  0  0  0  0  0  0  0
   -0.0790   13.3660   -4.6100 C   0  0  0  0  0  0  0  0  0  0  0  0
    0.8600   13.0210   -2.4610 C   0  0  0  0  0  0  0  0  0  0  0  0
    0.3560   12.2520   -3.6700 C   0  0  0  0  0  0  0  0  0  0  0  0
   -0.7180   14.4220   -1.0750 C   0  0  0  0  0  0  0  0  0  0  0  0
   -3.3890   14.5820   -1.1850 C   0  0  0  0  0  0  0  0  0  0  0  0
    0.1750   14.5600   -0.0410 N   0  0  0  0  0  0  0  0  0  0  0  0
   -2.0390   14.5900   -0.6830 C   0  0  0  0  0  0  0  0  0  0  0  0
   -4.2420   14.8030   -0.1120 C   0  0  0  0  0  0  0  0  0  0  0  0
   -5.7560   14.8350   -0.0050 C   0  0  0  0  0  0  0  0  0  0  0  0
   -0.1890   14.7660    1.2430 C   0  0  0  0  0  0  0  0  0  0  0  0
   -2.3240   14.8590    0.7610 C   0  0  0  0  0  0  0  0  0  0  0  0
   -3.5660   15.0000    1.0760 N   0  0  0  0  0  0  0  0  0  0  0  0
   -6.2000   14.6800    1.2880 N   0  0  0  0  0  0  0  0  0  0  0  0
   -6.5410   14.9650   -0.9390 O   0  0  0  0  0  0  0  0  0  0  0  0
   -1.3640   14.9220    1.6880 N   0  0  0  0  0  0  0  0  0  0  0  0
  2  1  1  0
  2  3  1  0
  1  4  1  0
  2  5  2  0
  2  6  2  0
  4  7  1  0
  4  8  1  6
  7  9  1  0
  8 10  1  0
  9 10  1  0
  7 11  1  0
  3 12  1  0
 11 13  1  0
 11 14  2  0
 12 14  1  0
 12 15  2  0
 15 16  1  0
 13 17  1  0
 14 18  1  0
 15 19  1  0
 18 19  2  0
 16 20  1  0
 16 21  2  0
 17 22  2  0
 18 22  1  0
M  END
