mac-x0344-mac-x0188
     RDKit          3D

 25 28  0  0  0  0  0  0  0  0999 V2000
    1.4760   13.6090   -4.7000 O   0  0  0  0  0  0  0  0  0  0  0  0
    1.4660   12.6200   -3.6980 C   0  0  1  0  0  0  0  0  0  0  0  0
    1.1530   13.2100   -2.4350 N   0  0  0  0  0  0  0  0  0  0  0  0
    0.2020   14.2370   -4.8300 C   0  0  1  0  0  0  0  0  0  0  0  0
    0.4300   11.5000   -3.9990 C   0  0  0  0  0  0  0  0  0  0  0  0
   -0.8090   13.3010   -5.2650 O   0  0  0  0  0  0  0  0  0  0  0  0
   -0.3040   14.8260   -3.5450 C   0  0  2  0  0  0  0  0  0  0  0  0
    0.0640   10.7290   -3.1100 O   0  0  0  0  0  0  0  0  0  0  0  0
    0.0310   11.5040   -5.3290 N   0  0  0  0  0  0  0  0  0  0  0  0
    0.4590   14.3700   -2.3380 C   0  0  0  0  0  0  0  0  0  0  0  0
   -1.9150   13.3110   -4.3000 N   0  0  0  0  0  0  0  0  0  0  0  0
   -1.8140   14.6180   -3.6500 C   0  0  1  0  0  0  0  0  0  0  0  0
    0.4920   15.0380   -1.3130 O   0  0  0  0  0  0  0  0  0  0  0  0
   -0.8110   10.5780   -5.9650 C   0  0  0  0  0  0  0  0  0  0  0  0
   -2.7440   14.8610   -2.4600 C   0  0  0  0  0  0  0  0  0  0  0  0
   -0.3870   10.0410   -7.1900 C   0  0  0  0  0  0  0  0  0  0  0  0
   -2.0350   10.1740   -5.4390 C   0  0  0  0  0  0  0  0  0  0  0  0
   -4.0610   15.2950   -2.6600 C   0  0  0  0  0  0  0  0  0  0  0  0
   -2.3160   14.6680   -1.1330 C   0  0  0  0  0  0  0  0  0  0  0  0
   -1.1830    9.1140   -7.8710 C   0  0  0  0  0  0  0  0  0  0  0  0
   -2.8310    9.2470   -6.1190 C   0  0  0  0  0  0  0  0  0  0  0  0
   -4.9220   15.5370   -1.5910 C   0  0  0  0  0  0  0  0  0  0  0  0
   -3.1810   14.9100   -0.0560 C   0  0  0  0  0  0  0  0  0  0  0  0
   -2.4060    8.7180   -7.3330 C   0  0  0  0  0  0  0  0  0  0  0  0
   -4.4830   15.3470   -0.2900 C   0  0  0  0  0  0  0  0  0  0  0  0
  1  2  1  0
  2  3  1  0
  4  1  1  1
  2  5  1  6
  4  6  1  0
  4  7  1  0
  5  8  2  0
  5  9  1  0
  3 10  1  0
  7 10  1  1
  6 11  1  0
  7 12  1  0
 11 12  1  0
 10 13  2  0
  9 14  1  0
 12 15  1  1
 14 16  2  0
 14 17  1  0
 15 18  2  0
 15 19  1  0
 16 20  1  0
 17 21  2  0
 18 22  1  0
 19 23  2  0
 20 24  2  0
 21 24  1  0
 22 25  2  0
 23 25  1  0
M  END
