mac-x0354-mac-x0371
     RDKit          3D

 24 26  0  0  0  0  0  0  0  0999 V2000
    0.6170   11.0380   -8.4490 C   0  0  0  0  0  0  0  0  0  0  0  0
    0.8800   11.4600   -7.0890 N   0  0  0  0  0  0  0  0  0  0  0  0
    1.8470   12.3310   -6.8130 N   0  0  0  0  0  0  0  0  0  0  0  0
    0.2160   11.0490   -5.9820 C   0  0  0  0  0  0  0  0  0  0  0  0
    1.8060   12.4850   -5.5120 C   0  0  0  0  0  0  0  0  0  0  0  0
    0.7940   11.6990   -4.9090 C   0  0  0  0  0  0  0  0  0  0  0  0
   -0.8610   10.1080   -6.0330 C   0  0  0  0  0  0  0  0  0  0  0  0
    0.4570   11.6160   -3.4530 C   0  0  0  0  0  0  0  0  0  0  0  0
   -0.6540    8.8450   -6.5870 C   0  0  0  0  0  0  0  0  0  0  0  0
   -2.1060   10.4590   -5.5230 C   0  0  0  0  0  0  0  0  0  0  0  0
    1.5070   11.8590   -2.5610 O   0  0  0  0  0  0  0  0  0  0  0  0
   -0.0420   10.3410   -3.0600 O   0  0  0  0  0  0  0  0  0  0  0  0
   -0.5710   12.6750   -3.2020 C   0  0  0  0  0  0  0  0  0  0  0  0
   -1.6970    7.9330   -6.6310 C   0  0  0  0  0  0  0  0  0  0  0  0
   -3.1510    9.5480   -5.5660 C   0  0  0  0  0  0  0  0  0  0  0  0
   -2.9460    8.2830   -6.1190 C   0  0  0  0  0  0  0  0  0  0  0  0
   -0.0550   13.9830   -3.7220 C   0  0  0  0  0  0  0  0  0  0  0  0
   -0.9370   14.9930   -4.1230 C   0  0  0  0  0  0  0  0  0  0  0  0
    1.3340   14.2520   -3.8300 C   0  0  0  0  0  0  0  0  0  0  0  0
    2.6500   13.1910   -3.4120 Cl  0  0  0  0  0  0  0  0  0  0  0  0
   -2.6520   14.7890   -4.0480 Cl  0  0  0  0  0  0  0  0  0  0  0  0
   -0.4680   16.2160   -4.6060 C   0  0  0  0  0  0  0  0  0  0  0  0
    1.7680   15.4520   -4.3040 C   0  0  0  0  0  0  0  0  0  0  0  0
    0.8940   16.4520   -4.6980 C   0  0  0  0  0  0  0  0  0  0  0  0
  1  2  1  0
  2  3  1  0
  2  4  1  0
  3  5  2  0
  4  6  2  0
  5  6  1  0
  4  7  1  0
  6  8  1  0
  7  9  2  0
  7 10  1  0
  8 11  1  0
  8 12  1  0
  8 13  1  0
  9 14  1  0
 10 15  2  0
 14 16  2  0
 15 16  1  0
 13 17  1  0
 17 18  2  0
 17 19  1  0
 19 20  1  0
 18 21  1  0
 18 22  1  0
 19 23  2  0
 22 24  2  0
 23 24  1  0
M  END
