mac-x0306-mac-x0223
     RDKit          3D

 26 28  0  0  0  0  0  0  0  0999 V2000
    1.1200   18.3770   -5.5170 C   0  0  0  0  0  0  0  0  0  0  0  0
   -0.1700   18.0010   -5.0760 O   0  0  0  0  0  0  0  0  0  0  0  0
   -0.3370   16.6520   -4.9650 C   0  0  0  0  0  0  0  0  0  0  0  0
   -1.6310   16.1130   -4.9760 C   0  0  0  0  0  0  0  0  0  0  0  0
    0.7120   15.7280   -4.8220 C   0  0  0  0  0  0  0  0  0  0  0  0
   -2.7840   16.7570   -5.0370 O   0  0  0  0  0  0  0  0  0  0  0  0
   -1.8770   14.7710   -4.8790 C   0  0  0  0  0  0  0  0  0  0  0  0
    0.4310   14.3520   -4.7010 C   0  0  0  0  0  0  0  0  0  0  0  0
    1.4690   13.3000   -4.5050 C   0  0  0  0  0  0  0  0  0  0  0  0
   -3.1500   15.9340   -3.9030 C   0  0  0  0  0  0  0  0  0  0  0  0
   -0.8630   13.8930   -4.7420 C   0  0  0  0  0  0  0  0  0  0  0  0
    1.0930   12.4480   -3.3010 C   0  0  0  0  0  0  0  0  0  0  0  0
   -4.2390   14.8810   -3.8450 C   0  0  0  0  0  0  0  0  0  0  0  0
    0.4690   11.3970   -3.3020 O   0  0  0  0  0  0  0  0  0  0  0  0
    1.5220   13.0080   -2.1390 O   0  0  0  0  0  0  0  0  0  0  0  0
   -4.3710   14.8480   -2.3530 C   0  0  0  0  0  0  0  0  0  0  0  0
   -5.5600   14.7780   -1.6520 C   0  0  0  0  0  0  0  0  0  0  0  0
   -3.1690   14.9110   -1.7270 N   0  0  0  0  0  0  0  0  0  0  0  0
   -3.1350   14.9060   -0.3930 C   0  0  0  0  0  0  0  0  0  0  0  0
   -5.5020   14.7690   -0.2510 C   0  0  0  0  0  0  0  0  0  0  0  0
   -6.7310   14.6890    0.5240 C   0  0  0  0  0  0  0  0  0  0  0  0
   -4.2640   14.8370    0.3860 C   0  0  0  0  0  0  0  0  0  0  0  0
   -6.7690   14.5160    1.8930 N   0  0  0  0  0  0  0  0  0  0  0  0
   -7.9590   14.7690    0.0490 N   0  0  0  0  0  0  0  0  0  0  0  0
   -8.7920   14.6490    1.1250 C   0  0  0  0  0  0  0  0  0  0  0  0
   -8.0730   14.4910    2.2810 C   0  0  0  0  0  0  0  0  0  0  0  0
  1  2  1  0
  2  3  1  0
  3  4  2  0
  3  5  1  0
  4  6  1  0
  4  7  1  0
  5  8  2  0
  8  9  1  0
  6 10  1  0
  7 11  2  0
  8 11  1  0
  9 12  1  0
 10 13  1  0
 12 14  2  0
 12 15  1  0
 13 16  1  0
 16 17  2  0
 16 18  1  0
 18 19  2  0
 17 20  1  0
 20 21  1  0
 19 22  1  0
 20 22  2  0
 21 23  1  0
 21 24  2  0
 24 25  1  0
 23 26  1  0
 25 26  2  0
M  END
