mac-x0179-mac-x0271
     RDKit          3D

 30 33  0  0  0  0  0  0  0  0999 V2000
    1.6040   13.0220   -2.2700 O   0  0  0  0  0  0  0  0  0  0  0  0
    0.9980   12.2430   -3.1850 C   0  0  0  0  0  0  0  0  0  0  0  0
    0.7060   11.0930   -2.8980 O   0  0  0  0  0  0  0  0  0  0  0  0
    0.7310   12.8860   -4.5360 C   0  0  0  0  0  0  0  0  0  0  0  0
    0.0240   11.9990   -5.4380 N   0  0  0  0  0  0  0  0  0  0  0  0
    0.7170   11.4820   -6.4980 C   0  0  0  0  0  0  0  0  0  0  0  0
   -1.0910   11.2390   -5.1820 C   0  0  0  0  0  0  0  0  0  0  0  0
    1.8030   11.8140   -6.9080 O   0  0  0  0  0  0  0  0  0  0  0  0
   -1.9690   11.2610   -4.2550 N   0  0  0  0  0  0  0  0  0  0  0  0
   -0.0720   10.4010   -7.0680 C   0  0  0  0  0  0  0  0  0  0  0  0
   -1.1800   10.2470   -6.2620 C   0  0  0  0  0  0  0  0  0  0  0  0
   -2.0380   12.1600   -3.1190 C   0  0  0  0  0  0  0  0  0  0  0  0
    0.1430    9.6130   -8.1830 C   0  0  0  0  0  0  0  0  0  0  0  0
   -2.1430    9.2870   -6.5280 C   0  0  0  0  0  0  0  0  0  0  0  0
   -3.4160   12.8350   -3.1180 C   0  0  0  0  0  0  0  0  0  0  0  0
   -0.8150    8.6360   -8.4730 C   0  0  0  0  0  0  0  0  0  0  0  0
   -1.9500    8.4730   -7.6510 C   0  0  0  0  0  0  0  0  0  0  0  0
   -3.4200   14.2240   -3.7740 C   0  0  0  0  0  0  0  0  0  0  0  0
   -3.5400   15.3200   -2.8720 O   0  0  0  0  0  0  0  0  0  0  0  0
   -4.3590   15.2000   -1.7850 C   0  0  0  0  0  0  0  0  0  0  0  0
   -5.7480   15.1390   -1.8080 C   0  0  0  0  0  0  0  0  0  0  0  0
   -3.6860   15.1370   -0.5580 C   0  0  0  0  0  0  0  0  0  0  0  0
   -6.4390   15.0130   -0.6010 C   0  0  0  0  0  0  0  0  0  0  0  0
   -4.3880   15.0130    0.6460 C   0  0  0  0  0  0  0  0  0  0  0  0
   -5.7840   14.9490    0.6210 C   0  0  0  0  0  0  0  0  0  0  0  0
   -7.8520   14.9520   -0.6640 O   0  0  0  0  0  0  0  0  0  0  0  0
   -6.5900   14.8210    1.8340 C   0  0  0  0  0  0  0  0  0  0  0  0
   -8.6300   14.8890    0.4870 C   0  0  0  0  0  0  0  0  0  0  0  0
   -9.8540   14.9270    0.4660 O   0  0  0  0  0  0  0  0  0  0  0  0
   -7.9170   14.7900    1.7610 C   0  0  0  0  0  0  0  0  0  0  0  0
  1  2  1  0
  2  3  2  0
  2  4  1  0
  4  5  1  0
  5  6  1  0
  5  7  1  0
  6  8  2  0
  7  9  2  3
  6 10  1  0
  7 11  1  0
 10 11  2  0
  9 12  1  0
 10 13  1  0
 11 14  1  0
 12 15  1  0
 13 16  2  0
 14 17  2  0
 16 17  1  0
 15 18  1  0
 18 19  1  0
 19 20  1  0
 20 21  2  0
 20 22  1  0
 21 23  1  0
 22 24  2  0
 23 25  2  0
 24 25  1  0
 23 26  1  0
 25 27  1  0
 26 28  1  0
 28 29  2  0
 27 30  2  0
 28 30  1  0
M  END
