mac-x0453-diamond-x0950_0_A
     RDKit          3D

 16 16  0  0  0  0  0  0  0  0999 V2000
   -7.0120   14.0190    2.3190 N   0  0  0  0  0  0  0  0  0  0  0  0
   -6.0020   13.7720    1.2860 C   0  0  0  0  0  0  0  0  0  0  0  0
   -4.8480   14.7860    1.3150 C   0  0  0  0  0  0  0  0  0  0  0  0
   -4.0260   14.7860    0.0800 C   0  0  0  0  0  0  0  0  0  0  0  0
   -2.7000   14.4460   -0.0470 C   0  0  0  0  0  0  0  0  0  0  0  0
   -4.5450   15.1520   -1.1440 N   0  0  0  0  0  0  0  0  0  0  0  0
   -2.4110   14.6030   -1.3690 N   0  0  0  0  0  0  0  0  0  0  0  0
   -3.5490   15.0310   -1.9950 C   0  0  0  0  0  0  0  0  0  0  0  0
   -1.1150   14.3540   -1.9800 C   0  0  0  0  0  0  0  0  0  0  0  0
   -0.3540   13.2370   -1.2610 C   0  0  0  0  0  0  0  0  0  0  0  0
    0.8860   12.8800   -1.9060 O   0  0  0  0  0  0  0  0  0  0  0  0
    0.7930   12.0740   -2.9960 C   0  0  0  0  0  0  0  0  0  0  0  0
    1.3070   12.7820   -4.2500 C   0  0  1  0  0  0  0  0  0  0  0  0
    0.3610   10.9240   -2.9790 O   0  0  0  0  0  0  0  0  0  0  0  0
    2.8110   12.9660   -4.1820 C   0  0  0  0  0  0  0  0  0  0  0  0
    0.9800   12.0600   -5.4370 O   0  0  0  0  0  0  0  0  0  0  0  0
  1  2  1  0
  2  3  1  0
  3  4  1  0
  4  5  2  0
  4  6  1  0
  5  7  1  0
  6  8  2  0
  7  8  1  0
  7  9  1  0
  9 10  1  0
 10 11  1  0
 11 12  1  0
 12 13  1  0
 12 14  2  0
 13 15  1  1
 13 16  1  0
M  END
