mac-x0348-mac-x0226
     RDKit          3D

 26 29  0  0  0  0  0  0  0  0999 V2000
    0.3440   18.7320   -6.1840 C   0  0  0  0  0  0  0  0  0  0  0  0
   -0.0740   17.5620   -5.4640 N   0  0  0  0  0  0  0  0  0  0  0  0
    0.7260   16.8830   -4.5990 C   0  0  0  0  0  0  0  0  0  0  0  0
   -1.3070   16.9570   -5.5330 C   0  0  0  0  0  0  0  0  0  0  0  0
    0.0420   15.8150   -4.0960 C   0  0  0  0  0  0  0  0  0  0  0  0
   -1.2520   15.8520   -4.6840 C   0  0  0  0  0  0  0  0  0  0  0  0
   -2.4640   17.2660   -6.2560 C   0  0  0  0  0  0  0  0  0  0  0  0
    0.5630   14.8140   -3.1190 C   0  0  0  0  0  0  0  0  0  0  0  0
   -2.3740   15.0240   -4.5500 C   0  0  0  0  0  0  0  0  0  0  0  0
   -3.5600   16.4070   -6.0890 C   0  0  0  0  0  0  0  0  0  0  0  0
    0.2030   13.3960   -3.5270 C   0  0  0  0  0  0  0  0  0  0  0  0
   -3.5200   15.3160   -5.2620 C   0  0  0  0  0  0  0  0  0  0  0  0
    0.4630   12.4230   -2.4060 C   0  0  0  0  0  0  0  0  0  0  0  0
    0.5130   12.7260   -1.2200 O   0  0  0  0  0  0  0  0  0  0  0  0
    0.6250   11.1660   -2.8670 O   0  0  0  0  0  0  0  0  0  0  0  0
    1.0660   10.9770   -4.2250 C   0  0  2  0  0  0  0  0  0  0  0  0
    1.9600   12.0820   -4.8160 C   0  0  0  0  0  0  0  0  0  0  0  0
   -0.1170   10.9720   -5.1710 C   0  0  0  0  0  0  0  0  0  0  0  0
    1.7550   11.9990   -6.2760 N   0  0  0  0  0  0  0  0  0  0  0  0
    0.4990   11.3620   -6.4330 N   0  0  0  0  0  0  0  0  0  0  0  0
    0.1010   10.7430   -7.6320 C   0  0  0  0  0  0  0  0  0  0  0  0
   -1.0360    9.9260   -7.7000 C   0  0  0  0  0  0  0  0  0  0  0  0
    0.8090   10.9010   -8.8260 C   0  0  0  0  0  0  0  0  0  0  0  0
   -1.4280    9.3150   -8.8960 C   0  0  0  0  0  0  0  0  0  0  0  0
    0.4360   10.3020  -10.0210 C   0  0  0  0  0  0  0  0  0  0  0  0
   -0.6910    9.5030  -10.0590 C   0  0  0  0  0  0  0  0  0  0  0  0
  1  2  1  0
  2  3  1  0
  2  4  1  0
  3  5  2  0
  4  6  2  0
  5  6  1  0
  4  7  1  0
  5  8  1  0
  6  9  1  0
  7 10  2  0
  8 11  1  0
  9 12  2  0
 10 12  1  0
 11 13  1  0
 13 14  2  0
 13 15  1  0
 16 15  1  1
 16 17  1  0
 16 18  1  0
 17 19  1  0
 18 20  1  0
 19 20  1  0
 20 21  1  0
 21 22  2  0
 21 23  1  0
 22 24  1  0
 23 25  2  0
 24 26  2  0
 25 26  1  0
M  END
