mac-x0373-mac-x0271
     RDKit          3D

 22 24  0  0  0  0  0  0  0  0999 V2000
    0.7620   13.5060   -1.2230 O   0  0  0  0  0  0  0  0  0  0  0  0
   -0.1010   14.3420   -1.8770 C   0  0  0  0  0  0  0  0  0  0  0  0
    0.2580   15.4560   -2.2140 O   0  0  0  0  0  0  0  0  0  0  0  0
   -1.4880   13.7220   -2.1420 C   0  0  2  0  0  0  0  0  0  0  0  0
   -1.6730   12.8890   -3.4010 C   0  0  0  0  0  0  0  0  0  0  0  0
   -2.7870   14.2290   -1.4100 C   0  0  2  0  0  0  0  0  0  0  0  0
   -0.9780   13.0060   -4.6170 C   0  0  0  0  0  0  0  0  0  0  0  0
   -2.6580   11.8950   -3.2780 C   0  0  0  0  0  0  0  0  0  0  0  0
   -3.6300   15.4830   -1.6840 C   0  0  0  0  0  0  0  0  0  0  0  0
   -2.5820   14.1550    0.0640 C   0  0  0  0  0  0  0  0  0  0  0  0
   -1.2710   12.1360   -5.6700 C   0  0  0  0  0  0  0  0  0  0  0  0
   -2.9470   11.0360   -4.3240 C   0  0  0  0  0  0  0  0  0  0  0  0
   -4.6870   15.7660   -0.8360 C   0  0  0  0  0  0  0  0  0  0  0  0
   -3.6000   14.4100    0.8610 C   0  0  0  0  0  0  0  0  0  0  0  0
   -2.2540   11.1520   -5.5220 C   0  0  0  0  0  0  0  0  0  0  0  0
   -4.9710   14.8000    0.3230 C   0  0  1  0  0  0  0  0  0  0  0  0
   -5.7900   15.0990    1.5680 C   0  0  0  0  0  0  0  0  0  0  0  0
   -5.8140   13.6820   -0.3410 C   0  0  0  0  0  0  0  0  0  0  0  0
   -7.1360   14.9270    1.6650 C   0  0  0  0  0  0  0  0  0  0  0  0
   -7.2220   14.0460   -0.5330 O   0  0  0  0  0  0  0  0  0  0  0  0
   -7.9420   14.4840    0.5290 C   0  0  0  0  0  0  0  0  0  0  0  0
   -9.1700   14.5400    0.5620 O   0  0  0  0  0  0  0  0  0  0  0  0
  1  2  1  0
  2  3  2  0
  4  2  1  6
  4  5  1  0
  4  6  1  0
  5  7  2  0
  5  8  1  0
  6  9  1  6
  6 10  1  0
  7 11  1  0
  8 12  2  0
  9 13  2  0
 10 14  2  0
 11 15  2  0
 12 15  1  0
 16 13  1  6
 14 16  1  0
 16 17  1  0
 16 18  1  0
 17 19  2  0
 18 20  1  0
 19 21  1  0
 20 21  1  0
 21 22  2  0
M  END
