mac-x0179-mac-x0402
     RDKit          3D

 28 31  0  0  0  0  0  0  0  0999 V2000
    1.4770   12.9860   -2.2970 O   0  0  0  0  0  0  0  0  0  0  0  0
    0.9260   12.1420   -3.1940 C   0  0  0  0  0  0  0  0  0  0  0  0
    0.6300   11.0110   -2.8490 O   0  0  0  0  0  0  0  0  0  0  0  0
    0.7510   12.7540   -4.5880 C   0  0  2  0  0  0  0  0  0  0  0  0
   -0.0270   14.0620   -4.5710 C   0  0  0  0  0  0  0  0  0  0  0  0
    0.1540   11.7270   -5.4150 N   0  0  0  0  0  0  0  0  0  0  0  0
   -1.4820   13.9100   -4.1070 C   0  0  0  0  0  0  0  0  0  0  0  0
    0.7360   11.3490   -6.5740 C   0  0  0  0  0  0  0  0  0  0  0  0
   -1.0390   11.0950   -5.2180 C   0  0  0  0  0  0  0  0  0  0  0  0
    1.7500   11.7690   -7.0470 O   0  0  0  0  0  0  0  0  0  0  0  0
   -1.8680   11.2470   -4.3410 O   0  0  0  0  0  0  0  0  0  0  0  0
   -1.9710   15.1170   -3.3330 C   0  0  0  0  0  0  0  0  0  0  0  0
   -0.0900   10.2910   -7.1420 C   0  0  0  0  0  0  0  0  0  0  0  0
   -1.1820   10.1320   -6.3070 C   0  0  0  0  0  0  0  0  0  0  0  0
    0.0820    9.5280   -8.2750 C   0  0  0  0  0  0  0  0  0  0  0  0
   -2.1660    9.1960   -6.5630 C   0  0  0  0  0  0  0  0  0  0  0  0
   -3.1680   15.0530   -2.4130 C   0  0  0  0  0  0  0  0  0  0  0  0
   -0.8990    8.5730   -8.5570 C   0  0  0  0  0  0  0  0  0  0  0  0
   -2.0160    8.4070   -7.7070 C   0  0  0  0  0  0  0  0  0  0  0  0
   -4.4760   14.9970   -2.8910 C   0  0  0  0  0  0  0  0  0  0  0  0
   -2.9490   15.0660   -1.0270 C   0  0  0  0  0  0  0  0  0  0  0  0
   -4.0440   15.0310   -0.1700 C   0  0  0  0  0  0  0  0  0  0  0  0
   -5.5630   14.9530   -2.0190 C   0  0  0  0  0  0  0  0  0  0  0  0
   -5.3490   14.9680   -0.6380 C   0  0  0  0  0  0  0  0  0  0  0  0
   -4.0740   15.0590    1.5310 S   0  0  0  0  0  0  0  0  0  0  0  0
   -5.7950   14.9620    1.5000 C   0  0  0  0  0  0  0  0  0  0  0  0
   -6.3320   14.9230    0.3190 N   0  0  0  0  0  0  0  0  0  0  0  0
   -6.5450   14.9300    2.6190 N   0  0  0  0  0  0  0  0  0  0  0  0
  1  2  1  0
  2  3  2  0
  2  4  1  0
  4  5  1  1
  4  6  1  0
  5  7  1  0
  6  8  1  0
  6  9  1  0
  8 10  2  0
  9 11  2  0
  7 12  1  0
  8 13  1  0
  9 14  1  0
 13 14  2  0
 13 15  1  0
 14 16  1  0
 12 17  1  0
 15 18  2  0
 16 19  2  0
 18 19  1  0
 17 20  2  0
 17 21  1  0
 21 22  2  0
 20 23  1  0
 22 24  1  0
 23 24  2  0
 22 25  1  0
 25 26  1  0
 24 27  1  0
 26 27  2  0
 26 28  1  0
M  END
