mac-x0132-diamond-x0662_0_A
     RDKit          3D

 32 35  0  0  0  0  0  0  0  0999 V2000
   -4.0370   15.1640    1.7930 N   0  0  0  0  0  0  0  0  0  0  0  0
   -5.0990   14.9820    0.9150 C   0  0  0  0  0  0  0  0  0  0  0  0
   -6.3410   14.8870    1.4390 N   0  0  0  0  0  0  0  0  0  0  0  0
   -4.8500   14.9040   -0.4470 C   0  0  0  0  0  0  0  0  0  0  0  0
   -5.9780   14.7510   -1.2530 C   0  0  0  0  0  0  0  0  0  0  0  0
   -7.3380   14.7290    0.5650 C   0  0  0  0  0  0  0  0  0  0  0  0
   -3.5600   14.9640   -1.0280 C   0  0  0  0  0  0  0  0  0  0  0  0
   -7.2240   14.6650   -0.7630 N   0  0  0  0  0  0  0  0  0  0  0  0
   -5.7830   14.6830   -2.6210 C   0  0  0  0  0  0  0  0  0  0  0  0
   -3.3820   14.8670   -2.4210 C   0  0  0  0  0  0  0  0  0  0  0  0
   -2.0150   14.8880   -3.0760 C   0  0  0  0  0  0  0  0  0  0  0  0
   -4.5170   14.7370   -3.2030 C   0  0  0  0  0  0  0  0  0  0  0  0
   -1.8690   13.8220   -4.1970 C   0  0  0  0  0  0  0  0  0  0  0  0
   -0.9460   12.6020   -3.9540 C   0  0  0  0  0  0  0  0  0  0  0  0
   -0.9880   11.7180   -5.1380 N   0  0  0  0  0  0  0  0  0  0  0  0
    0.0890   11.5700   -5.8540 C   0  0  0  0  0  0  0  0  0  0  0  0
    1.2380   12.0410   -5.7430 O   0  0  0  0  0  0  0  0  0  0  0  0
    0.0120   10.6850   -7.0990 C   0  0  0  0  0  0  0  0  0  0  0  0
   -0.9080    9.6270   -7.1290 C   0  0  0  0  0  0  0  0  0  0  0  0
    0.8200   10.8880   -8.2280 C   0  0  0  0  0  0  0  0  0  0  0  0
   -1.0090    8.8090   -8.2600 C   0  0  0  0  0  0  0  0  0  0  0  0
    0.7310   10.0880   -9.3730 C   0  0  0  0  0  0  0  0  0  0  0  0
    1.5090   10.2550  -10.5490 N   0  0  0  0  0  0  0  0  0  0  0  0
   -0.1960    9.0410   -9.3740 C   0  0  0  0  0  0  0  0  0  0  0  0
    2.2220    9.3160  -11.2770 C   0  0  0  0  0  0  0  0  0  0  0  0
    2.3380    8.1270  -11.0210 O   0  0  0  0  0  0  0  0  0  0  0  0
    2.9080    9.8810  -12.4740 C   0  0  0  0  0  0  0  0  0  0  0  0
    2.6960   11.1420  -13.1050 C   0  0  0  0  0  0  0  0  0  0  0  0
    3.8810    9.1900  -13.1150 N   0  0  0  0  0  0  0  0  0  0  0  0
    4.2660   10.0030  -14.1150 N   0  0  0  0  0  0  0  0  0  0  0  0
    3.5850   11.1850  -14.1550 C   0  0  0  0  0  0  0  0  0  0  0  0
    5.3150    9.5730  -15.0110 C   0  0  0  0  0  0  0  0  0  0  0  0
  1  2  1  0
  2  3  2  0
  2  4  1  0
  4  5  2  0
  3  6  1  0
  4  7  1  0
  5  8  1  0
  6  8  2  0
  5  9  1  0
  7 10  2  0
 10 11  1  0
  9 12  2  0
 10 12  1  0
 11 13  1  0
 13 14  1  0
 14 15  1  0
 15 16  2  3
 16 17  1  0
 16 18  1  0
 18 19  2  0
 18 20  1  0
 19 21  1  0
 20 22  2  0
 22 23  1  0
 21 24  2  0
 22 24  1  0
 23 25  1  0
 25 26  2  0
 25 27  1  0
 27 28  1  0
 27 29  2  0
 29 30  1  0
 28 31  2  0
 30 31  1  0
 30 32  1  0
M  CHG  1  17  -1
M  END
