mac-x0188-mac-x0347
     RDKit          3D

 19 21  0  0  0  0  0  0  0  0999 V2000
    1.4800   13.6760   -4.9520 C   0  0  0  0  0  0  0  0  0  0  0  0
    0.1190   13.6980   -4.3830 C   0  0  0  0  0  0  0  0  0  0  0  0
   -0.8910   13.4910   -5.2600 O   0  0  0  0  0  0  0  0  0  0  0  0
   -0.3840   13.8860   -3.1070 C   0  0  0  0  0  0  0  0  0  0  0  0
    0.4480   14.1430   -1.9520 C   0  0  0  0  0  0  0  0  0  0  0  0
   -2.0850   13.5260   -4.5880 N   0  0  0  0  0  0  0  0  0  0  0  0
   -1.8060   13.7550   -3.2900 C   0  0  0  0  0  0  0  0  0  0  0  0
    0.8160   15.2490   -1.6070 O   0  0  0  0  0  0  0  0  0  0  0  0
    0.8470   13.0700   -1.2310 O   0  0  0  0  0  0  0  0  0  0  0  0
   -2.9750   13.8170   -2.3170 C   0  0  2  0  0  0  0  0  0  0  0  0
   -4.2440   14.3610   -2.9620 C   0  0  0  0  0  0  0  0  0  0  0  0
   -2.7600   14.3000   -0.8410 C   0  0  0  0  0  0  0  0  0  0  0  0
   -4.9970   15.3020   -2.4110 C   0  0  0  0  0  0  0  0  0  0  0  0
   -4.1070   14.7810   -0.2320 C   0  0  0  0  0  0  0  0  0  0  0  0
   -4.5870   15.8730   -1.1280 C   0  0  0  0  0  0  0  0  0  0  0  0
   -4.2620   15.2450    1.2000 C   0  0  0  0  0  0  0  0  0  0  0  0
   -5.1980   13.7260   -0.3190 C   0  0  0  0  0  0  0  0  0  0  0  0
   -5.3100   14.6230    1.7560 C   0  0  0  0  0  0  0  0  0  0  0  0
   -5.8780   13.6830    0.8300 C   0  0  0  0  0  0  0  0  0  0  0  0
  1  2  1  0
  2  3  1  0
  2  4  2  0
  4  5  1  0
  3  6  1  0
  4  7  1  0
  6  7  2  0
  5  8  2  0
  5  9  1  0
 10  7  1  6
 10 11  1  0
 10 12  1  0
 11 13  2  0
 12 14  1  0
 13 15  1  0
 14 15  1  0
 14 16  1  0
 14 17  1  0
 16 18  2  0
 17 19  2  0
 18 19  1  0
M  END
