mac-x0179-mac-x0321
     RDKit          3D

 26 28  0  0  0  0  0  0  0  0999 V2000
    1.8350   13.1010   -2.5880 O   0  0  0  0  0  0  0  0  0  0  0  0
    0.9840   12.2490   -3.1790 C   0  0  0  0  0  0  0  0  0  0  0  0
    0.9930   11.0620   -2.8840 O   0  0  0  0  0  0  0  0  0  0  0  0
   -0.0180   12.7760   -4.2040 C   0  0  1  0  0  0  0  0  0  0  0  0
   -0.0920   14.3070   -4.3620 C   0  0  0  0  0  0  0  0  0  0  0  0
   -0.3420   11.9730   -5.3840 N   0  0  0  0  0  0  0  0  0  0  0  0
   -1.4800   14.6850   -4.0210 N   0  0  0  0  0  0  0  0  0  0  0  0
    0.5590   11.5640   -6.3530 C   0  0  0  0  0  0  0  0  0  0  0  0
   -1.3430   11.0690   -5.2830 C   0  0  0  0  0  0  0  0  0  0  0  0
    1.6640   11.9970   -6.6170 O   0  0  0  0  0  0  0  0  0  0  0  0
   -2.1960   11.0150   -4.4200 O   0  0  0  0  0  0  0  0  0  0  0  0
   -1.8450   14.6730   -2.7900 C   0  0  0  0  0  0  0  0  0  0  0  0
   -0.0740   10.4350   -7.0570 C   0  0  0  0  0  0  0  0  0  0  0  0
   -1.2420   10.1410   -6.3840 C   0  0  0  0  0  0  0  0  0  0  0  0
   -0.9170   14.3440   -1.8870 O   0  0  0  0  0  0  0  0  0  0  0  0
    0.3060    9.7110   -8.1730 C   0  0  0  0  0  0  0  0  0  0  0  0
   -2.0980    9.1320   -6.7600 C   0  0  0  0  0  0  0  0  0  0  0  0
   -3.1180   14.9550   -2.1130 C   0  0  0  0  0  0  0  0  0  0  0  0
   -0.5480    8.6750   -8.5820 C   0  0  0  0  0  0  0  0  0  0  0  0
   -1.7390    8.3870   -7.8810 C   0  0  0  0  0  0  0  0  0  0  0  0
   -3.1360   15.0650   -0.7250 C   0  0  0  0  0  0  0  0  0  0  0  0
   -4.2930   15.1070   -2.8490 C   0  0  0  0  0  0  0  0  0  0  0  0
   -4.3320   15.3330   -0.0850 C   0  0  0  0  0  0  0  0  0  0  0  0
   -5.4940   15.3720   -2.1890 C   0  0  0  0  0  0  0  0  0  0  0  0
   -4.3340   15.4750    1.6160 Cl  0  0  0  0  0  0  0  0  0  0  0  0
   -5.5120   15.4850   -0.8050 C   0  0  0  0  0  0  0  0  0  0  0  0
  1  2  1  0
  2  3  2  0
  2  4  1  0
  4  5  1  6
  4  6  1  0
  5  7  1  0
  6  8  1  0
  6  9  1  0
  8 10  2  0
  9 11  2  0
  7 12  2  3
  8 13  1  0
  9 14  1  0
 13 14  2  0
 12 15  1  0
 13 16  1  0
 14 17  1  0
 12 18  1  0
 16 19  2  0
 17 20  2  0
 19 20  1  0
 18 21  2  0
 18 22  1  0
 21 23  1  0
 22 24  2  0
 23 25  1  0
 23 26  2  0
 24 26  1  0
M  END
