mac-x0302-mac-x0527
     RDKit          3D

 20 21  0  0  0  0  0  0  0  0999 V2000
    1.6210   14.6230   -3.6330 O   0  0  0  0  0  0  0  0  0  0  0  0
    0.6010   14.3210   -2.8010 C   0  0  0  0  0  0  0  0  0  0  0  0
    0.8330   14.0330   -1.6400 O   0  0  0  0  0  0  0  0  0  0  0  0
   -0.7780   14.3650   -3.4730 C   0  0  2  0  0  0  0  0  0  0  0  0
   -1.8070   14.3400   -2.4300 N   0  0  0  0  0  0  0  0  0  0  0  0
   -0.8750   13.1570   -4.3900 C   0  0  0  0  0  0  0  0  0  0  0  0
   -2.9990   15.0380   -2.5210 C   0  0  0  0  0  0  0  0  0  0  0  0
   -1.8760   12.1890   -4.1860 C   0  0  0  0  0  0  0  0  0  0  0  0
    0.0340   12.9730   -5.4500 C   0  0  0  0  0  0  0  0  0  0  0  0
   -3.3680   15.6210   -3.5380 O   0  0  0  0  0  0  0  0  0  0  0  0
   -3.8330   15.0400   -1.2870 C   0  0  0  0  0  0  0  0  0  0  0  0
   -1.9570   11.0690   -5.0180 C   0  0  0  0  0  0  0  0  0  0  0  0
   -0.0510   11.8550   -6.2780 C   0  0  0  0  0  0  0  0  0  0  0  0
   -5.2300   15.0390   -1.4130 C   0  0  0  0  0  0  0  0  0  0  0  0
   -3.2450   15.0360   -0.0120 C   0  0  0  0  0  0  0  0  0  0  0  0
   -1.0460   10.9010   -6.0610 C   0  0  0  0  0  0  0  0  0  0  0  0
   -6.0160   15.0250   -0.2680 C   0  0  0  0  0  0  0  0  0  0  0  0
   -4.0460   15.0260    1.1240 C   0  0  0  0  0  0  0  0  0  0  0  0
   -7.3780   15.0180   -0.3430 O   0  0  0  0  0  0  0  0  0  0  0  0
   -5.4320   15.0170    1.0010 C   0  0  0  0  0  0  0  0  0  0  0  0
  1  2  1  0
  2  3  2  0
  2  4  1  0
  4  5  1  1
  4  6  1  0
  5  7  1  0
  6  8  2  0
  6  9  1  0
  7 10  2  0
  7 11  1  0
  8 12  1  0
  9 13  2  0
 11 14  2  0
 11 15  1  0
 12 16  2  0
 13 16  1  0
 14 17  1  0
 15 18  2  0
 17 19  1  0
 17 20  2  0
 18 20  1  0
M  END
