mac-x0436-diamond-x0587_0_A
     RDKit          3D

 31 33  0  0  0  0  0  0  0  0999 V2000
    0.7280   11.1590   -2.9960 O   0  0  0  0  0  0  0  0  0  0  0  0
    1.2400   12.4050   -2.9800 C   0  0  0  0  0  0  0  0  0  0  0  0
    1.3820   12.9850   -1.9220 O   0  0  0  0  0  0  0  0  0  0  0  0
    1.5850   12.9290   -4.3540 C   0  0  0  0  0  0  0  0  0  0  0  0
    0.3490   13.2240   -5.1960 C   0  0  0  0  0  0  0  0  0  0  0  0
   -0.3890   11.9570   -5.5640 C   0  0  0  0  0  0  0  0  0  0  0  0
   -1.6670   11.5300   -4.8050 C   0  0  0  0  0  0  0  0  0  0  0  0
    0.0740   11.2310   -6.5420 N   0  0  0  0  0  0  0  0  0  0  0  0
   -2.0870   11.9680   -3.6750 N   0  0  0  0  0  0  0  0  0  0  0  0
   -2.4510   10.5710   -5.4080 N   0  0  0  0  0  0  0  0  0  0  0  0
   -0.6080   10.0530   -6.9040 C   0  0  0  0  0  0  0  0  0  0  0  0
   -3.3120   11.4870   -3.0660 C   0  0  0  0  0  0  0  0  0  0  0  0
   -1.8590    9.7160   -6.3480 C   0  0  0  0  0  0  0  0  0  0  0  0
   -0.0220    9.2050   -7.8390 C   0  0  0  0  0  0  0  0  0  0  0  0
   -4.2550   12.6790   -2.8980 C   0  0  0  0  0  0  0  0  0  0  0  0
   -0.6670    8.0280   -8.2250 C   0  0  0  0  0  0  0  0  0  0  0  0
   -2.5010    8.5360   -6.7370 C   0  0  0  0  0  0  0  0  0  0  0  0
   -4.0920   13.2000   -1.5920 O   0  0  0  0  0  0  0  0  0  0  0  0
   -1.9060    7.6960   -7.6720 C   0  0  0  0  0  0  0  0  0  0  0  0
   -4.5140   14.5490   -1.4060 C   0  0  0  0  0  0  0  0  0  0  0  0
   -3.3690   15.2330   -1.1180 F   0  0  0  0  0  0  0  0  0  0  0  0
   -4.9560   15.0590   -2.5910 F   0  0  0  0  0  0  0  0  0  0  0  0
   -5.5300   14.6380   -0.2610 C   0  0  0  0  0  0  0  0  0  0  0  0
   -6.8510   14.5320   -0.5580 N   0  0  0  0  0  0  0  0  0  0  0  0
   -5.0580   14.8150    0.9910 N   0  0  0  0  0  0  0  0  0  0  0  0
   -7.7220   14.6140    0.4720 C   0  0  0  0  0  0  0  0  0  0  0  0
   -5.9720   14.8890    1.9760 C   0  0  0  0  0  0  0  0  0  0  0  0
   -7.3280   14.7970    1.7800 C   0  0  0  0  0  0  0  0  0  0  0  0
   -8.3060   14.8980    2.8690 C   0  0  0  0  0  0  0  0  0  0  0  0
   -7.8190   14.8400    4.1400 N   0  0  0  0  0  0  0  0  0  0  0  0
   -9.5000   15.0420    2.6450 O   0  0  0  0  0  0  0  0  0  0  0  0
  1  2  1  0
  2  3  2  0
  2  4  1  0
  4  5  1  0
  5  6  1  0
  6  7  1  0
  6  8  2  0
  7  9  2  3
  7 10  1  0
  8 11  1  0
  9 12  1  0
 10 13  1  0
 11 13  2  0
 11 14  1  0
 12 15  1  0
 14 16  2  0
 13 17  1  0
 15 18  1  0
 16 19  1  0
 17 19  2  0
 18 20  1  0
 20 21  1  0
 20 22  1  0
 20 23  1  0
 23 24  2  0
 23 25  1  0
 24 26  1  0
 25 27  2  0
 26 28  2  0
 27 28  1  0
 28 29  1  0
 29 30  1  0
 29 31  2  0
M  END
