mac-x0328-mac-x0433
     RDKit          3D

 12 12  0  0  0  0  0  0  0  0999 V2000
   -1.8770   14.7020   -3.7640 O   0  0  0  0  0  0  0  0  0  0  0  0
   -1.8770   14.7050   -2.4180 C   0  0  0  0  0  0  0  0  0  0  0  0
   -0.8370   14.6100   -1.7920 O   0  0  0  0  0  0  0  0  0  0  0  0
   -3.2310   14.8310   -1.8200 C   0  0  0  0  0  0  0  0  0  0  0  0
   -3.4960   14.9080   -0.4350 C   0  0  0  0  0  0  0  0  0  0  0  0
   -4.2880   14.8700   -2.7370 C   0  0  0  0  0  0  0  0  0  0  0  0
   -2.4380   14.8730    0.6240 C   0  0  0  0  0  0  0  0  0  0  0  0
   -4.8230   15.0230   -0.0060 C   0  0  0  0  0  0  0  0  0  0  0  0
   -5.6020   14.9790   -2.2980 C   0  0  0  0  0  0  0  0  0  0  0  0
   -6.6500   15.0000   -3.2290 N   0  0  0  0  0  0  0  0  0  0  0  0
   -5.8580   15.0560   -0.9260 C   0  0  0  0  0  0  0  0  0  0  0  0
   -7.1590   15.1630   -0.5000 O   0  0  0  0  0  0  0  0  0  0  0  0
  1  2  1  0
  2  3  2  0
  2  4  1  0
  4  5  2  0
  4  6  1  0
  5  7  1  0
  5  8  1  0
  6  9  2  0
  9 10  1  0
  8 11  2  0
  9 11  1  0
 11 12  1  0
M  END
