mac-x0546-mac-x0439
     RDKit          3D

 17 19  0  0  0  0  0  0  0  0999 V2000
   -4.1720   15.3550   -5.8780 C   0  0  0  0  0  0  0  0  0  0  0  0
   -3.4700   16.4140   -5.2120 O   0  0  0  0  0  0  0  0  0  0  0  0
   -2.1260   16.2350   -5.2750 C   0  0  0  0  0  0  0  0  0  0  0  0
   -1.6100   15.0110   -5.1650 C   0  0  0  0  0  0  0  0  0  0  0  0
   -1.2790   17.4170   -5.4780 C   0  0  0  0  0  0  0  0  0  0  0  0
   -0.1470   14.8490   -5.2740 C   0  0  1  0  0  0  0  0  0  0  0  0
    0.0530   17.3960   -5.2300 C   0  0  0  0  0  0  0  0  0  0  0  0
    0.5400   16.0900   -4.7440 C   0  0  0  0  0  0  0  0  0  0  0  0
    0.5680   13.8870   -4.4780 C   0  0  0  0  0  0  0  0  0  0  0  0
    0.3660   12.4350   -4.4270 C   0  0  0  0  0  0  0  0  0  0  0  0
    1.5040   15.8690   -3.9010 N   0  0  0  0  0  0  0  0  0  0  0  0
    1.4770   14.4970   -3.7570 C   0  0  0  0  0  0  0  0  0  0  0  0
    0.6920   12.0250   -3.0100 C   0  0  0  0  0  0  0  0  0  0  0  0
    2.3370   13.6930   -2.8420 C   0  0  2  0  0  0  0  0  0  0  0  0
    1.5700   12.5780   -2.2670 N   0  0  0  0  0  0  0  0  0  0  0  0
   -0.0360   10.9890   -2.5340 O   0  0  0  0  0  0  0  0  0  0  0  0
    2.9340   14.5670   -1.9110 O   0  0  0  0  0  0  0  0  0  0  0  0
  1  2  1  0
  2  3  1  0
  3  4  2  0
  3  5  1  0
  6  4  1  1
  5  7  2  0
  6  8  1  0
  7  8  1  0
  6  9  1  0
  9 10  1  0
  8 11  2  0
  9 12  2  0
 11 12  1  0
 10 13  1  0
 12 14  1  0
 13 15  2  0
 14 15  1  0
 13 16  1  0
 14 17  1  1
M  END
