mac-x0546-mac-x0510
     RDKit          3D

 28 31  0  0  0  0  0  0  0  0999 V2000
   -3.9860   15.0740   -6.8040 C   0  0  0  0  0  0  0  0  0  0  0  0
   -3.8440   15.6700   -5.4780 N   0  0  0  0  0  0  0  0  0  0  0  0
   -4.7070   14.7490   -4.6570 C   0  0  0  0  0  0  0  0  0  0  0  0
   -2.5150   15.8990   -5.0780 C   0  0  0  0  0  0  0  0  0  0  0  0
   -4.6880   14.9360   -3.1290 C   0  0  0  0  0  0  0  0  0  0  0  0
   -1.8450   14.8220   -4.6800 C   0  0  0  0  0  0  0  0  0  0  0  0
   -1.8230   17.2200   -5.0460 C   0  0  0  0  0  0  0  0  0  0  0  0
   -3.3790   14.8740   -2.5170 N   0  0  0  0  0  0  0  0  0  0  0  0
   -0.4790   14.9160   -4.1680 C   0  0  2  0  0  0  0  0  0  0  0  0
   -0.4840   17.3700   -4.8550 C   0  0  0  0  0  0  0  0  0  0  0  0
    0.2560   16.1120   -4.6950 C   0  0  0  0  0  0  0  0  0  0  0  0
    0.5760   13.9030   -4.4080 C   0  0  0  0  0  0  0  0  0  0  0  0
   -3.3750   14.9370   -1.2530 C   0  0  0  0  0  0  0  0  0  0  0  0
    0.3670   12.4480   -4.2270 C   0  0  0  0  0  0  0  0  0  0  0  0
    1.5020   15.8960   -4.9420 N   0  0  0  0  0  0  0  0  0  0  0  0
    1.6660   14.5400   -4.7640 C   0  0  0  0  0  0  0  0  0  0  0  0
   -2.3420   14.8620   -0.2940 C   0  0  0  0  0  0  0  0  0  0  0  0
   -4.6170   15.0990   -0.6930 N   0  0  0  0  0  0  0  0  0  0  0  0
    0.4280   11.9360   -2.8150 C   0  0  0  0  0  0  0  0  0  0  0  0
   -4.9410   14.9400    0.6260 C   0  0  0  0  0  0  0  0  0  0  0  0
   -2.6200   14.7740    1.0440 C   0  0  0  0  0  0  0  0  0  0  0  0
   -0.9780   14.8530   -0.3560 N   0  0  0  0  0  0  0  0  0  0  0  0
    0.9930   12.5170   -1.9080 O   0  0  0  0  0  0  0  0  0  0  0  0
   -0.2120   10.7560   -2.6530 O   0  0  0  0  0  0  0  0  0  0  0  0
   -6.1120   14.9490    0.9880 O   0  0  0  0  0  0  0  0  0  0  0  0
   -3.9090   14.7580    1.5010 N   0  0  0  0  0  0  0  0  0  0  0  0
   -1.5030   14.7100    1.7960 N   0  0  0  0  0  0  0  0  0  0  0  0
   -0.5200   14.7640    0.9260 C   0  0  0  0  0  0  0  0  0  0  0  0
  1  2  1  0
  2  3  1  0
  2  4  1  0
  3  5  1  0
  4  6  2  0
  4  7  1  0
  5  8  1  0
  9  6  1  6
  7 10  2  0
  9 11  1  0
 10 11  1  0
  9 12  1  0
  8 13  2  3
 12 14  1  0
 11 15  2  0
 12 16  2  0
 15 16  1  0
 13 17  1  0
 13 18  1  0
 14 19  1  0
 18 20  1  0
 17 21  2  0
 17 22  1  0
 19 23  2  0
 19 24  1  0
 20 25  2  0
 20 26  1  0
 21 26  1  0
 21 27  1  0
 22 28  1  0
 27 28  2  0
M  END
