mac-x0439-diamond-x0724_0_A
     RDKit          3D

 29 32  0  0  0  0  0  0  0  0999 V2000
   -3.1140   15.9700   -5.6660 Cl  0  0  0  0  0  0  0  0  0  0  0  0
   -1.6600   16.8960   -5.6370 C   0  0  0  0  0  0  0  0  0  0  0  0
   -0.6850   16.6460   -4.5770 C   0  0  1  0  0  0  0  0  0  0  0  0
   -1.3810   17.8650   -6.5140 C   0  0  0  0  0  0  0  0  0  0  0  0
   -0.4620   15.4060   -3.7810 C   0  0  0  0  0  0  0  0  0  0  0  0
    0.7200   16.9700   -4.8760 C   0  0  0  0  0  0  0  0  0  0  0  0
   -0.1090   18.5820   -6.4520 C   0  0  0  0  0  0  0  0  0  0  0  0
    0.8650   15.2350   -3.6370 C   0  0  0  0  0  0  0  0  0  0  0  0
    1.5850   16.1770   -4.3170 N   0  0  0  0  0  0  0  0  0  0  0  0
    0.9380   18.1790   -5.6920 C   0  0  0  0  0  0  0  0  0  0  0  0
    1.5290   14.1610   -2.8290 C   0  0  0  0  0  0  0  0  0  0  0  0
    2.8870   14.2620   -2.8330 O   0  0  0  0  0  0  0  0  0  0  0  0
    0.9280   13.2330   -2.1690 N   0  0  0  0  0  0  0  0  0  0  0  0
   -0.5390   13.1920   -2.1650 C   0  0  0  0  0  0  0  0  0  0  0  0
   -1.0790   14.5800   -1.7740 C   0  0  0  0  0  0  0  0  0  0  0  0
   -2.4460   14.6020   -1.1370 C   0  0  0  0  0  0  0  0  0  0  0  0
   -2.5430   14.7300    0.2510 C   0  0  0  0  0  0  0  0  0  0  0  0
   -3.6220   14.5040   -1.8990 C   0  0  0  0  0  0  0  0  0  0  0  0
   -3.7810   14.7560    0.8750 C   0  0  0  0  0  0  0  0  0  0  0  0
   -4.8730   14.5280   -1.2760 C   0  0  0  0  0  0  0  0  0  0  0  0
   -4.9550   14.6530    0.1200 C   0  0  0  0  0  0  0  0  0  0  0  0
   -6.2080   14.6820    0.7840 N   0  0  0  0  0  0  0  0  0  0  0  0
   -7.3980   14.5390    0.1400 N   0  0  0  0  0  0  0  0  0  0  0  0
   -6.3970   14.8620    2.1350 C   0  0  0  0  0  0  0  0  0  0  0  0
   -7.7490   14.8510    2.3850 C   0  0  0  0  0  0  0  0  0  0  0  0
   -8.3160   14.6430    1.1090 C   0  0  0  0  0  0  0  0  0  0  0  0
   -8.4280   15.0320    3.6970 C   0  0  0  0  0  0  0  0  0  0  0  0
   -8.7510   13.7330    4.2750 N   0  0  0  0  0  0  0  0  0  0  0  0
   -8.6780   13.7930    5.7300 C   0  0  0  0  0  0  0  0  0  0  0  0
  1  2  1  0
  2  3  1  0
  2  4  2  0
  3  5  1  6
  3  6  1  0
  4  7  1  0
  5  8  2  0
  6  9  2  0
  8  9  1  0
  6 10  1  0
  7 10  2  0
  8 11  1  0
 11 12  1  0
 11 13  2  3
 13 14  1  0
 14 15  1  0
 15 16  1  0
 16 17  2  0
 16 18  1  0
 17 19  1  0
 18 20  2  0
 19 21  2  0
 20 21  1  0
 21 22  1  0
 22 23  1  0
 22 24  1  0
 24 25  2  0
 23 26  2  0
 25 26  1  0
 25 27  1  0
 27 28  1  0
 28 29  1  0
M  END
