mac-x0576-mac-x0138
     RDKit          3D

 16 18  0  0  0  0  0  0  0  0999 V2000
   -0.1470   14.6070    1.4480 N   0  0  0  0  0  0  0  0  0  0  0  0
   -1.0040   14.1810    0.3770 C   0  0  1  0  0  0  0  0  0  0  0  0
   -2.3940   14.1220    0.9010 N   0  0  0  0  0  0  0  0  0  0  0  0
   -0.7940   15.2200   -0.6210 N   0  0  0  0  0  0  0  0  0  0  0  0
   -2.6060   14.3760    2.3010 N   0  0  0  0  0  0  0  0  0  0  0  0
   -1.8960   15.4350   -1.5680 C   0  0  2  0  0  0  0  0  0  0  0  0
   -3.2600   15.1240    0.4190 C   0  0  1  0  0  0  0  0  0  0  0  0
   -3.3440   15.1320   -1.0940 C   0  0  1  0  0  0  0  0  0  0  0  0
   -4.5270   14.9860    1.0920 N   0  0  0  0  0  0  0  0  0  0  0  0
   -1.6960   14.4890   -2.6530 N   0  0  0  0  0  0  0  0  0  0  0  0
   -5.7120   15.0250    0.4170 C   0  0  0  0  0  0  0  0  0  0  0  0
   -4.4030   15.9700   -1.5590 N   0  0  0  0  0  0  0  0  0  0  0  0
   -3.0580   14.1440   -3.0240 C   0  0  0  0  0  0  0  0  0  0  0  0
   -3.6610   13.8750   -1.7390 N   0  0  0  0  0  0  0  0  0  0  0  0
   -6.7490   14.6980    0.9860 O   0  0  0  0  0  0  0  0  0  0  0  0
   -5.7110   15.5080   -1.0540 C   0  0  0  0  0  0  0  0  0  0  0  0
  2  1  1  1
  2  3  1  0
  2  4  1  0
  3  5  1  0
  6  4  1  1
  3  7  1  0
  6  8  1  0
  7  8  1  0
  7  9  1  1
  6 10  1  0
  9 11  1  0
  8 12  1  1
 10 13  1  0
  8 14  1  0
 13 14  1  0
 11 15  2  0
 11 16  1  0
 12 16  1  0
M  END
