mac-x0132-mac-x0555
     RDKit          3D

 12 13  0  0  0  0  0  0  0  0999 V2000
   -4.6520   15.5340    2.1560 N   0  0  0  0  0  0  0  0  0  0  0  0
   -5.3220   14.8150    1.0870 C   0  0  1  0  0  0  0  0  0  0  0  0
   -6.7700   14.8350    1.4230 N   0  0  0  0  0  0  0  0  0  0  0  0
   -4.9800   15.5150   -0.2350 C   0  0  2  0  0  0  0  0  0  0  0  0
   -7.0800   14.1780    2.7000 N   0  0  0  0  0  0  0  0  0  0  0  0
   -6.1110   15.2430   -1.2620 C   0  0  2  0  0  0  0  0  0  0  0  0
   -7.6910   14.4530    0.3510 C   0  0  0  0  0  0  0  0  0  0  0  0
   -3.5800   15.2030   -0.7040 C   0  0  0  0  0  0  0  0  0  0  0  0
   -6.9870   14.1250   -0.8770 N   0  0  0  0  0  0  0  0  0  0  0  0
   -5.6210   15.0620   -2.6690 C   0  0  0  0  0  0  0  0  0  0  0  0
   -3.2930   14.9420   -1.9780 C   0  0  0  0  0  0  0  0  0  0  0  0
   -4.3230   14.9320   -2.9830 C   0  0  0  0  0  0  0  0  0  0  0  0
  2  1  1  1
  2  3  1  0
  2  4  1  0
  3  5  1  0
  4  6  1  0
  3  7  1  0
  4  8  1  6
  6  9  1  0
  7  9  1  0
  6 10  1  6
  8 11  2  0
 10 12  2  0
 11 12  1  0
M  END
