mac-x0358-diamond-x0900_0_A
     RDKit          3D

 19 20  0  0  0  0  0  0  0  0999 V2000
    1.9620   12.8980   -2.6840 O   0  0  0  0  0  0  0  0  0  0  0  0
    1.1620   12.1770   -3.4980 C   0  0  0  0  0  0  0  0  0  0  0  0
    0.6850   11.1350   -3.0770 O   0  0  0  0  0  0  0  0  0  0  0  0
    0.9450   12.8190   -4.8600 C   0  0  0  0  0  0  0  0  0  0  0  0
   -0.4170   13.3980   -4.7340 C   0  0  0  0  0  0  0  0  0  0  0  0
   -1.5150   12.5420   -4.7530 C   0  0  0  0  0  0  0  0  0  0  0  0
   -0.5900   14.7680   -4.5650 C   0  0  0  0  0  0  0  0  0  0  0  0
   -1.3040   11.2040   -4.9400 O   0  0  0  0  0  0  0  0  0  0  0  0
   -2.7920   13.0360   -4.5650 C   0  0  0  0  0  0  0  0  0  0  0  0
   -1.8660   15.2690   -4.3770 C   0  0  0  0  0  0  0  0  0  0  0  0
   -2.9630   14.4030   -4.3540 C   0  0  0  0  0  0  0  0  0  0  0  0
   -4.3000   14.9830   -4.0700 C   0  0  0  0  0  0  0  0  0  0  0  0
   -5.0330   14.3240   -2.8630 C   0  0  0  0  0  0  0  0  0  0  0  0
   -4.8450   14.9360   -1.5240 N   0  0  0  0  0  0  0  0  0  0  0  0
   -5.8760   14.9510   -0.5830 C   0  0  0  0  0  0  0  0  0  0  0  0
   -3.5640   14.9310   -0.8450 C   0  0  0  0  0  0  0  0  0  0  0  0
   -7.0620   15.1040   -0.8070 O   0  0  0  0  0  0  0  0  0  0  0  0
   -5.2680   14.7300    0.7840 C   0  0  0  0  0  0  0  0  0  0  0  0
   -3.8890   15.3290    0.5900 C   0  0  0  0  0  0  0  0  0  0  0  0
  1  2  1  0
  2  3  2  0
  2  4  1  0
  4  5  1  0
  5  6  2  0
  5  7  1  0
  6  8  1  0
  6  9  1  0
  7 10  2  0
  9 11  2  0
 10 11  1  0
 11 12  1  0
 12 13  1  0
 13 14  1  0
 14 15  1  0
 14 16  1  0
 15 17  2  0
 15 18  1  0
 16 19  1  0
 18 19  1  0
M  END
