mac-x0255-diamond-x0438_0_A
     RDKit          3D

 30 33  0  0  0  0  0  0  0  0999 V2000
    1.6550   12.7260   -1.7990 O   0  0  0  0  0  0  0  0  0  0  0  0
    0.5910   12.4360   -2.6450 C   0  0  0  0  0  0  0  0  0  0  0  0
    0.4340   11.0190   -2.6120 O   0  0  0  0  0  0  0  0  0  0  0  0
    0.9490   12.8110   -4.0970 C   0  0  0  0  0  0  0  0  0  0  0  0
   -0.7150   13.0660   -2.1040 C   0  0  0  0  0  0  0  0  0  0  0  0
   -0.8350   13.3970   -0.6070 C   0  0  0  0  0  0  0  0  0  0  0  0
    0.3880   14.1310   -4.4900 C   0  0  0  0  0  0  0  0  0  0  0  0
   -1.4280   14.7490   -0.2390 C   0  0  0  0  0  0  0  0  0  0  0  0
    1.0440   15.3260   -4.6840 C   0  0  0  0  0  0  0  0  0  0  0  0
   -1.2910   14.2780   -4.7430 S   0  0  0  0  0  0  0  0  0  0  0  0
    0.1570   16.3870   -5.0490 C   0  0  0  0  0  0  0  0  0  0  0  0
   -1.1670   15.9410   -5.1140 C   0  0  0  0  0  0  0  0  0  0  0  0
   -2.9550   14.8260   -0.3480 C   0  0  0  0  0  0  0  0  0  0  0  0
    0.4150   17.7410   -5.3380 C   0  0  0  0  0  0  0  0  0  0  0  0
   -2.2250   16.7980   -5.4530 C   0  0  0  0  0  0  0  0  0  0  0  0
   -3.5730   15.2940   -1.5240 C   0  0  0  0  0  0  0  0  0  0  0  0
   -3.7700   14.4170    0.7320 C   0  0  0  0  0  0  0  0  0  0  0  0
   -0.6360   18.5920   -5.6790 C   0  0  0  0  0  0  0  0  0  0  0  0
   -1.9360   18.1290   -5.7360 C   0  0  0  0  0  0  0  0  0  0  0  0
   -5.1770   14.4700    0.5990 C   0  0  0  0  0  0  0  0  0  0  0  0
   -4.9700   15.3590   -1.6620 C   0  0  0  0  0  0  0  0  0  0  0  0
   -6.1730   14.1180    1.4830 N   0  0  0  0  0  0  0  0  0  0  0  0
   -5.7350   14.9310   -0.5800 C   0  0  0  0  0  0  0  0  0  0  0  0
   -7.0970   14.8420   -0.3840 N   0  0  0  0  0  0  0  0  0  0  0  0
   -7.3200   14.3340    0.8790 C   0  0  0  0  0  0  0  0  0  0  0  0
   -8.6800   14.0640    1.4370 C   0  0  0  0  0  0  0  0  0  0  0  0
   -9.3000   15.3210    2.5450 S   0  0  0  0  0  0  0  0  0  0  0  0
   -8.0760   15.5000    3.8320 C   0  0  0  0  0  0  0  0  0  0  0  0
  -10.5100   14.7920    3.1530 O   0  0  0  0  0  0  0  0  0  0  0  0
   -9.3950   16.5490    1.7920 O   0  0  0  0  0  0  0  0  0  0  0  0
  2  1  1  0
  2  3  1  0
  2  4  1  0
  2  5  1  0
  5  6  1  0
  4  7  1  0
  6  8  1  0
  7  9  2  0
  7 10  1  0
  9 11  1  0
 10 12  1  0
 11 12  2  0
  8 13  1  0
 11 14  1  0
 12 15  1  0
 13 16  2  0
 13 17  1  0
 14 18  2  0
 15 19  2  0
 18 19  1  0
 17 20  2  0
 16 21  1  0
 20 22  1  0
 20 23  1  0
 21 23  2  0
 23 24  1  0
 22 25  2  0
 24 25  1  0
 25 26  1  0
 27 26  1  0
 27 28  1  0
 27 29  2  0
 27 30  2  0
M  END
