mac-x0228-mac-x0337
     RDKit          3D

 22 24  0  0  0  0  0  0  0  0999 V2000
   -1.7560   15.3820   -2.2950 O   0  0  0  0  0  0  0  0  0  0  0  0
   -2.5870   14.3010   -1.9960 C   0  0  0  0  0  0  0  0  0  0  0  0
   -2.4510   13.5020   -3.1670 O   0  0  0  0  0  0  0  0  0  0  0  0
   -2.5540   13.7990   -0.4650 S   0  0  0  0  0  0  0  0  0  0  0  0
   -3.9710   14.6660   -1.8830 C   0  0  0  0  0  0  0  0  0  0  0  0
   -0.8350   13.4430   -0.7060 O   0  0  0  0  0  0  0  0  0  0  0  0
   -2.9750   15.0500    0.2140 N   0  0  0  0  0  0  0  0  0  0  0  0
   -4.4190   14.5270   -0.6340 C   0  0  0  0  0  0  0  0  0  0  0  0
   -4.8200   15.0900   -2.8950 C   0  0  0  0  0  0  0  0  0  0  0  0
   -3.6040   12.5320   -1.0140 C   0  0  0  0  0  0  0  0  0  0  0  0
   -5.6610   14.7580   -0.2620 C   0  0  0  0  0  0  0  0  0  0  0  0
   -6.1360   15.3410   -2.5050 C   0  0  0  0  0  0  0  0  0  0  0  0
   -3.2730   11.7220   -2.0190 C   0  0  0  0  0  0  0  0  0  0  0  0
   -4.8310   12.3510   -0.3880 C   0  0  0  0  0  0  0  0  0  0  0  0
   -6.5780   15.1830   -1.1940 C   0  0  0  0  0  0  0  0  0  0  0  0
   -6.2800   14.6160    1.0690 C   0  0  0  0  0  0  0  0  0  0  0  0
   -4.1170   10.7210   -2.4350 C   0  0  0  0  0  0  0  0  0  0  0  0
   -5.6870   11.3330   -0.8170 C   0  0  0  0  0  0  0  0  0  0  0  0
   -7.7860   15.3470   -0.5340 O   0  0  0  0  0  0  0  0  0  0  0  0
   -7.7610   14.5840    0.6830 C   0  0  0  0  0  0  0  0  0  0  0  0
   -5.3290   10.5220   -1.8310 C   0  0  0  0  0  0  0  0  0  0  0  0
   -6.1810    9.3960   -2.3420 C   0  0  0  0  0  0  0  0  0  0  0  0
  2  1  1  0
  2  3  1  0
  2  4  1  0
  2  5  1  0
  4  6  2  0
  4  7  1  0
  5  8  2  0
  5  9  1  0
  4 10  1  0
  8 11  1  0
  9 12  2  0
 10 13  2  0
 10 14  1  0
 11 15  2  0
 12 15  1  0
 11 16  1  0
 13 17  1  0
 14 18  2  0
 15 19  1  0
 16 20  1  0
 19 20  1  0
 17 21  2  0
 18 21  1  0
 21 22  1  0
M  END
