mac-x0231-diamond-x0837_0_A
     RDKit          3D

 23 25  0  0  0  0  0  0  0  0999 V2000
    0.4070   10.5280   -2.4980 O   0  0  0  0  0  0  0  0  0  0  0  0
    0.7260   11.9280   -2.5070 C   0  0  0  0  0  0  0  0  0  0  0  0
    0.7940   12.4970   -1.4290 O   0  0  0  0  0  0  0  0  0  0  0  0
    0.9550   12.5480   -3.8180 C   0  0  0  0  0  0  0  0  0  0  0  0
    0.5340   13.9990   -3.9090 C   0  0  0  0  0  0  0  0  0  0  0  0
   -0.7570   14.5740   -4.1050 C   0  0  0  0  0  0  0  0  0  0  0  0
    1.6150   14.8680   -3.9690 N   0  0  0  0  0  0  0  0  0  0  0  0
   -0.8210   15.8950   -4.6270 C   0  0  0  0  0  0  0  0  0  0  0  0
    1.4670   16.1470   -4.1780 N   0  0  0  0  0  0  0  0  0  0  0  0
   -2.0610   13.8960   -3.8430 C   0  0  0  0  0  0  0  0  0  0  0  0
    0.3730   16.5800   -4.8260 C   0  0  0  0  0  0  0  0  0  0  0  0
   -2.0260   16.4530   -4.9500 C   0  0  0  0  0  0  0  0  0  0  0  0
   -3.3510   14.5020   -4.1580 C   0  0  0  0  0  0  0  0  0  0  0  0
    0.3530   17.5770   -5.5700 O   0  0  0  0  0  0  0  0  0  0  0  0
   -3.1110   15.6880   -4.6990 C   0  0  0  0  0  0  0  0  0  0  0  0
   -1.9340   14.3860   -3.6120 I   0  0  0  0  0  0  0  0  0  0  0  0
   -3.2690   14.3680   -1.7750 C   0  0  1  0  0  0  0  0  0  0  0  0
   -2.6850   14.7150   -0.4690 C   0  0  0  0  0  0  0  0  0  0  0  0
   -4.6530   15.0520   -1.8840 C   0  0  0  0  0  0  0  0  0  0  0  0
   -3.3620   14.9440    0.6660 C   0  0  0  0  0  0  0  0  0  0  0  0
   -5.4900   14.8990   -0.6030 C   0  0  0  0  0  0  0  0  0  0  0  0
   -6.7330   14.8140   -0.6540 O   0  0  0  0  0  0  0  0  0  0  0  0
   -4.7940   14.8540    0.6390 N   0  0  0  0  0  0  0  0  0  0  0  0
  1  2  1  0
  2  3  2  0
  2  4  1  0
  4  5  1  0
  5  6  1  0
  5  7  2  0
  6  8  2  0
  7  9  1  0
  6 10  1  0
  8 11  1  0
  9 11  1  0
  8 12  1  0
 10 13  2  0
 11 14  2  0
 12 15  2  0
 13 15  1  0
 15 16  1  0
 17 16  1  6
 17 18  1  0
 17 19  1  0
 18 20  2  0
 19 21  1  0
 21 22  2  0
 20 23  1  0
 21 23  1  0
M  END
