mac-x0226-mac-x0404
     RDKit          3D

 26 29  0  0  0  0  0  0  0  0999 V2000
    2.0470   12.0950   -2.3530 O   0  0  0  0  0  0  0  0  0  0  0  0
    0.7790   12.1570   -2.9140 C   0  0  0  0  0  0  0  0  0  0  0  0
   -0.0550   11.2370   -2.2060 O   0  0  0  0  0  0  0  0  0  0  0  0
    0.4320   13.6070   -2.6920 C   0  0  0  0  0  0  0  0  0  0  0  0
    0.8110   11.9460   -4.3790 C   0  0  0  0  0  0  0  0  0  0  0  0
    0.7010   14.2770   -3.9070 O   0  0  0  0  0  0  0  0  0  0  0  0
    1.6860   12.5870   -5.2720 C   0  0  0  0  0  0  0  0  0  0  0  0
    0.0490   11.1280   -5.1900 C   0  0  0  0  0  0  0  0  0  0  0  0
    1.5080   12.2120   -6.5230 N   0  0  0  0  0  0  0  0  0  0  0  0
    0.4990   11.3090   -6.4760 N   0  0  0  0  0  0  0  0  0  0  0  0
   -0.4350   14.7360   -4.4590 C   0  0  0  0  0  0  0  0  0  0  0  0
    0.0470   10.6890   -7.6620 C   0  0  0  0  0  0  0  0  0  0  0  0
   -0.4100   16.0630   -4.8920 C   0  0  0  0  0  0  0  0  0  0  0  0
   -1.5800   13.9540   -4.5870 C   0  0  0  0  0  0  0  0  0  0  0  0
   -1.0940    9.8930   -7.6920 C   0  0  0  0  0  0  0  0  0  0  0  0
    0.7700   10.8820   -8.8370 C   0  0  0  0  0  0  0  0  0  0  0  0
   -1.5790   16.6110   -5.4540 C   0  0  0  0  0  0  0  0  0  0  0  0
   -2.7280   14.4970   -5.1440 C   0  0  0  0  0  0  0  0  0  0  0  0
    0.7400   16.8690   -4.7850 C   0  0  0  0  0  0  0  0  0  0  0  0
   -1.4930    9.3060   -8.8960 C   0  0  0  0  0  0  0  0  0  0  0  0
    0.3800   10.3060  -10.0310 C   0  0  0  0  0  0  0  0  0  0  0  0
   -2.7310   15.8170   -5.5710 C   0  0  0  0  0  0  0  0  0  0  0  0
   -1.5780   17.9340   -5.8910 C   0  0  0  0  0  0  0  0  0  0  0  0
    0.7300   18.1830   -5.2290 C   0  0  0  0  0  0  0  0  0  0  0  0
   -0.7550    9.5130  -10.0640 C   0  0  0  0  0  0  0  0  0  0  0  0
   -0.4290   18.7120   -5.7810 C   0  0  0  0  0  0  0  0  0  0  0  0
  2  1  1  0
  2  3  1  0
  2  4  1  0
  2  5  1  0
  4  6  1  0
  5  7  1  0
  5  8  2  0
  7  9  2  0
  8 10  1  0
  9 10  1  0
  6 11  1  0
 10 12  1  0
 11 13  1  0
 11 14  2  0
 12 15  2  0
 12 16  1  0
 13 17  2  0
 14 18  1  0
 13 19  1  0
 15 20  1  0
 16 21  2  0
 17 22  1  0
 18 22  2  0
 17 23  1  0
 19 24  2  0
 20 25  2  0
 21 25  1  0
 23 26  2  0
 24 26  1  0
M  END
