mac-x0124-mac-x0402
     RDKit          3D

 21 24  0  0  0  0  0  0  0  0999 V2000
   -2.3210   14.4050   -3.3830 C   0  0  0  0  0  0  0  0  0  0  0  0
   -2.4680   14.7330   -2.0120 N   0  0  0  0  0  0  0  0  0  0  0  0
   -3.6440   15.4290   -1.8280 C   0  0  0  0  0  0  0  0  0  0  0  0
   -3.7600   14.3280   -2.9100 C   0  0  0  0  0  0  0  0  0  0  0  0
   -1.8300   14.5360   -0.8050 C   0  0  0  0  0  0  0  0  0  0  0  0
   -5.0120   14.5500   -3.5030 C   0  0  0  0  0  0  0  0  0  0  0  0
   -3.7070   13.9930   -1.5390 C   0  0  0  0  0  0  0  0  0  0  0  0
   -3.8180   15.6580   -0.5280 C   0  0  0  0  0  0  0  0  0  0  0  0
   -2.7130   15.0980    0.1180 C   0  0  0  0  0  0  0  0  0  0  0  0
   -0.6660   13.9410   -0.4900 N   0  0  0  0  0  0  0  0  0  0  0  0
   -4.8370   13.9130   -0.7520 C   0  0  0  0  0  0  0  0  0  0  0  0
   -6.1840   14.4580   -2.6780 C   0  0  0  0  0  0  0  0  0  0  0  0
   -2.4320   15.0340    1.4170 C   0  0  0  0  0  0  0  0  0  0  0  0
   -0.4870   13.9670    0.8590 C   0  0  0  0  0  0  0  0  0  0  0  0
   -6.0950   14.1460   -1.2720 C   0  0  0  0  0  0  0  0  0  0  0  0
   -4.9140   13.5510    0.9240 S   0  0  0  0  0  0  0  0  0  0  0  0
   -3.3740   15.5570    2.2600 N   0  0  0  0  0  0  0  0  0  0  0  0
   -1.2990   14.4720    1.8220 N   0  0  0  0  0  0  0  0  0  0  0  0
   -6.6020   13.7470    0.8690 C   0  0  0  0  0  0  0  0  0  0  0  0
   -7.1190   14.0440   -0.3160 N   0  0  0  0  0  0  0  0  0  0  0  0
   -7.3040   13.5970    2.0090 N   0  0  0  0  0  0  0  0  0  0  0  0
  1  2  1  0
  2  3  1  0
  1  4  1  0
  2  5  1  0
  4  6  2  0
  4  7  1  0
  3  8  2  0
  5  9  2  0
  8  9  1  0
  5 10  1  0
  7 11  2  0
  6 12  1  0
  9 13  1  0
 10 14  2  0
 11 15  1  0
 12 15  2  0
 11 16  1  0
 13 17  1  0
 13 18  2  0
 14 18  1  0
 16 19  1  0
 15 20  1  0
 19 20  2  0
 19 21  1  0
M  END
