mac-x0365-diamond-x0967_0_A
     RDKit          3D

 15 16  0  0  0  0  0  0  0  0999 V2000
   -0.8310   14.8180   -1.1420 O   0  0  0  0  0  0  0  0  0  0  0  0
   -1.7660   14.8100   -2.1150 C   0  0  0  0  0  0  0  0  0  0  0  0
   -1.4870   14.8950   -3.3000 O   0  0  0  0  0  0  0  0  0  0  0  0
   -3.1670   14.6770   -1.6190 C   0  0  0  0  0  0  0  0  0  0  0  0
   -4.2480   14.6440   -2.5890 C   0  0  0  0  0  0  0  0  0  0  0  0
   -3.4400   14.5710   -0.2900 C   0  0  0  0  0  0  0  0  0  0  0  0
   -5.5300   14.8070   -2.2320 C   0  0  0  0  0  0  0  0  0  0  0  0
   -4.8870   14.3760    0.1340 C   0  0  2  0  0  0  0  0  0  0  0  0
   -6.4880   14.7670   -3.1780 F   0  0  0  0  0  0  0  0  0  0  0  0
   -5.9250   15.0400   -0.8110 C   0  0  1  0  0  0  0  0  0  0  0  0
   -5.3080   14.6640    1.5480 C   0  0  0  0  0  0  0  0  0  0  0  0
   -5.8430   16.4240   -0.6460 O   0  0  0  0  0  0  0  0  0  0  0  0
   -7.2820   14.5540   -0.5540 N   0  0  0  0  0  0  0  0  0  0  0  0
   -6.6250   14.6690    1.8380 C   0  0  0  0  0  0  0  0  0  0  0  0
   -7.5470   14.4010    0.7010 C   0  0  0  0  0  0  0  0  0  0  0  0
  1  2  1  0
  2  3  2  0
  2  4  1  0
  4  5  1  0
  4  6  2  0
  5  7  2  0
  8  6  1  6
  7  9  1  0
  7 10  1  0
  8 10  1  0
  8 11  1  0
 10 12  1  1
 10 13  1  0
 11 14  2  0
 13 15  2  0
 14 15  1  0
M  END
