mac-x0565-mac-x0226
     RDKit          3D

 27 30  0  0  0  0  0  0  0  0999 V2000
   -5.5340   15.0470    0.8680 O   0  0  0  0  0  0  0  0  0  0  0  0
   -6.0040   14.9600   -0.3830 C   0  0  0  0  0  0  0  0  0  0  0  0
   -7.2020   14.9090   -0.5950 O   0  0  0  0  0  0  0  0  0  0  0  0
   -4.9410   14.9290   -1.4230 C   0  0  0  0  0  0  0  0  0  0  0  0
   -3.5880   14.7810   -1.0420 C   0  0  0  0  0  0  0  0  0  0  0  0
   -5.2830   15.0430   -2.7790 C   0  0  0  0  0  0  0  0  0  0  0  0
   -2.6120   14.7510   -2.0400 C   0  0  0  0  0  0  0  0  0  0  0  0
   -4.2980   15.0150   -3.7650 C   0  0  0  0  0  0  0  0  0  0  0  0
   -2.9930   14.8740   -3.3660 C   0  0  0  0  0  0  0  0  0  0  0  0
   -1.2130   14.6080   -1.9440 N   0  0  0  0  0  0  0  0  0  0  0  0
   -0.6690   13.3800   -1.3680 C   0  0  0  0  0  0  0  0  0  0  0  0
   -1.9270   14.8390   -4.2200 O   0  0  0  0  0  0  0  0  0  0  0  0
   -0.8010   14.9280   -3.3130 C   0  0  0  0  0  0  0  0  0  0  0  0
    0.5140   12.9510   -2.0650 O   0  0  0  0  0  0  0  0  0  0  0  0
    0.4130   11.7310   -2.6700 C   0  0  0  0  0  0  0  0  0  0  0  0
    0.1990   10.6700   -2.0680 O   0  0  0  0  0  0  0  0  0  0  0  0
    0.5980   11.7880   -4.1120 C   0  0  0  0  0  0  0  0  0  0  0  0
    1.4310   12.6090   -4.9080 C   0  0  0  0  0  0  0  0  0  0  0  0
   -0.0420   10.9860   -5.0390 C   0  0  0  0  0  0  0  0  0  0  0  0
    1.3260   12.3400   -6.2110 N   0  0  0  0  0  0  0  0  0  0  0  0
    0.4130   11.3290   -6.2910 N   0  0  0  0  0  0  0  0  0  0  0  0
    0.0370   10.7490   -7.5390 C   0  0  0  0  0  0  0  0  0  0  0  0
   -1.1150    9.9590   -7.6230 C   0  0  0  0  0  0  0  0  0  0  0  0
    0.7880   10.9390   -8.6890 C   0  0  0  0  0  0  0  0  0  0  0  0
   -1.4830    9.3890   -8.8440 C   0  0  0  0  0  0  0  0  0  0  0  0
    0.4300   10.3770   -9.9040 C   0  0  0  0  0  0  0  0  0  0  0  0
   -0.7130    9.5960   -9.9860 C   0  0  0  0  0  0  0  0  0  0  0  0
  1  2  1  0
  2  3  2  0
  2  4  1  0
  4  5  2  0
  4  6  1  0
  5  7  1  0
  6  8  2  0
  7  9  2  0
  8  9  1  0
  7 10  1  0
 10 11  1  0
  9 12  1  0
 10 13  1  0
 12 13  1  0
 11 14  1  0
 14 15  1  0
 15 16  2  0
 15 17  1  0
 17 18  1  0
 17 19  2  0
 18 20  2  0
 19 21  1  0
 20 21  1  0
 21 22  1  0
 22 23  2  0
 22 24  1  0
 23 25  1  0
 24 26  2  0
 25 27  2  0
 26 27  1  0
M  END
