mac-x0402-mac-x0567
     RDKit          3D

 16 18  0  0  0  0  0  0  0  0999 V2000
   -1.6670   15.2700   -3.1520 Cl  0  0  0  0  0  0  0  0  0  0  0  0
   -2.9340   14.4820   -2.1330 C   0  0  2  0  0  0  0  0  0  0  0  0
   -4.2460   15.1290   -2.5710 C   0  0  0  0  0  0  0  0  0  0  0  0
   -2.6530   14.5460   -0.5800 C   0  0  1  0  0  0  0  0  0  0  0  0
   -3.9720   14.5620    0.1680 C   0  0  0  0  0  0  0  0  0  0  0  0
   -5.2810   15.3250   -1.7280 C   0  0  0  0  0  0  0  0  0  0  0  0
   -1.3760   13.8440   -0.0180 C   0  0  1  0  0  0  0  0  0  0  0  0
   -2.1870   15.8880   -0.0920 C   0  0  0  0  0  0  0  0  0  0  0  0
   -0.0380   14.2400   -0.4320 N   0  0  0  0  0  0  0  0  0  0  0  0
   -5.1840   14.9330   -0.3700 C   0  0  0  0  0  0  0  0  0  0  0  0
   -4.2090   14.1670    1.7820 S   0  0  0  0  0  0  0  0  0  0  0  0
   -1.4640   14.2090    1.3800 N   0  0  0  0  0  0  0  0  0  0  0  0
   -1.8430   15.5980    1.3070 N   0  0  0  0  0  0  0  0  0  0  0  0
   -5.8820   14.5340    1.6510 C   0  0  0  0  0  0  0  0  0  0  0  0
   -6.2740   14.9140    0.4570 N   0  0  0  0  0  0  0  0  0  0  0  0
   -6.7120   14.4370    2.7110 N   0  0  0  0  0  0  0  0  0  0  0  0
  2  1  1  6
  2  3  1  0
  2  4  1  0
  4  5  1  0
  3  6  2  0
  4  7  1  0
  4  8  1  6
  7  9  1  6
  5 10  2  0
  6 10  1  0
  5 11  1  0
  7 12  1  0
  8 13  1  0
 12 13  1  0
 11 14  1  0
 10 15  1  0
 14 15  2  0
 14 16  1  0
M  END
