mac-x0277-mac-x0182
     RDKit          3D

 23 25  0  0  0  0  0  0  0  0999 V2000
   -1.4110   18.4160   -5.1320 Cl  0  0  0  0  0  0  0  0  0  0  0  0
   -0.5970   16.9160   -4.9200 C   0  0  0  0  0  0  0  0  0  0  0  0
   -1.2400   15.6850   -5.0570 C   0  0  0  0  0  0  0  0  0  0  0  0
    0.7530   16.9610   -4.6010 C   0  0  0  0  0  0  0  0  0  0  0  0
   -2.9240   15.5810   -5.4380 Cl  0  0  0  0  0  0  0  0  0  0  0  0
   -0.5090   14.4950   -4.8880 C   0  0  0  0  0  0  0  0  0  0  0  0
    1.4590   15.7790   -4.4280 C   0  0  0  0  0  0  0  0  0  0  0  0
    0.8650   14.5560   -4.5730 C   0  0  0  0  0  0  0  0  0  0  0  0
    1.7410   13.3490   -4.3820 C   0  0  0  0  0  0  0  0  0  0  0  0
    1.3930   12.6690   -3.1050 C   0  0  0  0  0  0  0  0  0  0  0  0
    0.2940   11.9240   -3.1960 N   0  0  0  0  0  0  0  0  0  0  0  0
    2.0110   12.7980   -2.0660 O   0  0  0  0  0  0  0  0  0  0  0  0
   -0.0910   11.4270   -4.3240 C   0  0  0  0  0  0  0  0  0  0  0  0
    0.4050   11.4010   -5.7940 C   0  0  0  0  0  0  0  0  0  0  0  0
   -1.6270   10.5350   -4.1420 S   0  0  0  0  0  0  0  0  0  0  0  0
    1.3070   12.0610   -6.2700 O   0  0  0  0  0  0  0  0  0  0  0  0
   -2.6430   11.6260   -4.2370 O   0  0  0  0  0  0  0  0  0  0  0  0
   -1.4390    9.9030   -5.7860 C   0  0  0  0  0  0  0  0  0  0  0  0
   -0.3850   10.4060   -6.5390 C   0  0  0  0  0  0  0  0  0  0  0  0
   -2.2960    8.9530   -6.2930 C   0  0  0  0  0  0  0  0  0  0  0  0
   -0.1620    9.9680   -7.8390 C   0  0  0  0  0  0  0  0  0  0  0  0
   -2.0960    8.4980   -7.5870 C   0  0  0  0  0  0  0  0  0  0  0  0
   -1.0370    9.0000   -8.3600 C   0  0  0  0  0  0  0  0  0  0  0  0
  1  2  1  0
  2  3  2  0
  2  4  1  0
  3  5  1  0
  3  6  1  0
  4  7  2  0
  6  8  2  0
  7  8  1  0
  8  9  1  0
  9 10  1  0
 10 11  1  0
 10 12  2  0
 11 13  2  3
 13 14  1  0
 15 13  1  6
 14 16  2  0
 15 17  2  0
 15 18  1  0
 14 19  1  0
 18 19  2  0
 18 20  1  0
 19 21  1  0
 20 22  2  0
 21 23  2  0
 22 23  1  0
M  END
