mac-x0375-diamond-x0962_3_A
     RDKit          3D

 19 20  0  0  0  0  0  0  0  0999 V2000
    1.5730   13.0700   -2.5170 O   0  0  0  0  0  0  0  0  0  0  0  0
    0.9080   12.1290   -3.2210 C   0  0  0  0  0  0  0  0  0  0  0  0
    0.6910   11.0220   -2.7570 O   0  0  0  0  0  0  0  0  0  0  0  0
    0.4830   12.5900   -4.6060 C   0  0  0  0  0  0  0  0  0  0  0  0
    0.5070   11.4570   -5.5750 N   0  0  0  0  0  0  0  0  0  0  0  0
    0.9540   11.8620   -6.9050 C   0  0  0  0  0  0  0  0  0  0  0  0
   -0.6860   10.7260   -5.5740 C   0  0  0  0  0  0  0  0  0  0  0  0
    1.0770   10.6830   -7.9250 C   0  0  2  0  0  0  0  0  0  0  0  0
   -0.6360    9.3420   -5.8320 C   0  0  0  0  0  0  0  0  0  0  0  0
   -1.9390   11.2920   -5.3380 C   0  0  0  0  0  0  0  0  0  0  0  0
    1.2720   11.1330   -9.3020 N   0  0  0  0  0  0  0  0  0  0  0  0
   -1.7820    8.5630   -5.8520 C   0  0  0  0  0  0  0  0  0  0  0  0
   -3.0960   10.5110   -5.3600 C   0  0  0  0  0  0  0  0  0  0  0  0
   -0.0630    9.7730   -8.0090 C   0  0  0  0  0  0  0  0  0  0  0  0
   -3.0170    9.1460   -5.6190 C   0  0  0  0  0  0  0  0  0  0  0  0
    0.0830    8.4400   -8.3030 N   0  0  0  0  0  0  0  0  0  0  0  0
   -1.4100    9.9600   -7.8480 C   0  0  0  0  0  0  0  0  0  0  0  0
   -1.1570    7.8870   -8.3050 C   0  0  0  0  0  0  0  0  0  0  0  0
   -2.0820    8.7810   -8.0330 N   0  0  0  0  0  0  0  0  0  0  0  0
  1  2  1  0
  2  3  2  0
  2  4  1  0
  4  5  1  0
  5  6  1  0
  5  7  1  0
  6  8  1  0
  7  9  2  0
  7 10  1  0
  8 11  1  6
  9 12  1  0
 10 13  2  0
  8 14  1  0
 12 15  2  0
 13 15  1  0
 14 16  1  0
 14 17  2  0
 16 18  1  0
 17 19  1  0
 18 19  2  0
M  END
