mac-x0444-diamond-x0301_0_B
     RDKit          3D

 22 24  0  0  0  0  0  0  0  0999 V2000
   19.8800   28.1690    5.1720 N   0  0  0  0  0  0  0  0  0  0  0  0
   20.3240   27.5580    4.0090 C   0  0  0  0  0  0  0  0  0  0  0  0
   20.2790   27.9990    2.8590 O   0  0  0  0  0  0  0  0  0  0  0  0
   18.5000   28.5280    5.1830 N   0  0  0  0  0  0  0  0  0  0  0  0
   20.2870   27.5970    6.4680 C   0  0  0  0  0  0  0  0  0  0  0  0
   21.8090   27.5710    6.5730 C   0  0  0  0  0  0  0  0  0  0  0  0
   19.7290   26.1910    6.7190 C   0  0  0  0  0  0  0  0  0  0  0  0
   20.9000   26.2390    4.3060 C   0  0  0  0  0  0  0  0  0  0  0  0
   18.0660   29.7850    4.9430 C   0  0  0  0  0  0  0  0  0  0  0  0
   22.1480   25.7490    3.6590 C   0  0  2  0  0  0  0  0  0  0  0  0
   20.2500   25.4800    5.2020 C   0  0  0  0  0  0  0  0  0  0  0  0
   18.4800   30.4250    3.8020 N   0  0  0  0  0  0  0  0  0  0  0  0
   17.2330   30.5330    5.6850 N   0  0  0  0  0  0  0  0  0  0  0  0
   22.8170   24.7850    4.6300 C   0  0  0  0  0  0  0  0  0  0  0  0
   20.7400   24.1670    5.5860 C   0  0  0  0  0  0  0  0  0  0  0  0
   23.3630   26.5470    3.3630 C   0  0  0  0  0  0  0  0  0  0  0  0
   17.1730   31.6360    4.9220 N   0  0  0  0  0  0  0  0  0  0  0  0
   17.9000   31.6140    3.7970 N   0  0  0  0  0  0  0  0  0  0  0  0
   16.3780   32.7760    5.2810 C   0  0  0  0  0  0  0  0  0  0  0  0
   21.9960   23.7800    5.3250 C   0  0  0  0  0  0  0  0  0  0  0  0
   24.0990   24.9200    4.7750 N   0  0  0  0  0  0  0  0  0  0  0  0
   24.4050   26.0040    3.9960 C   0  0  0  0  0  0  0  0  0  0  0  0
  1  2  1  0
  2  3  2  0
  1  4  1  0
  1  5  1  0
  5  6  1  0
  5  7  1  0
  2  8  1  0
  4  9  1  0
  8 10  1  0
  8 11  2  0
  9 12  1  0
  9 13  2  0
 10 14  1  0
 11 15  1  0
 10 16  1  1
 13 17  1  0
 12 18  2  0
 17 18  1  0
 17 19  1  0
 14 20  1  0
 15 20  2  0
 14 21  2  0
 16 22  2  0
 21 22  1  0
M  END
