mac-x0228-diamond-x0742_0_A
     RDKit          3D

 23 26  0  0  0  0  0  0  0  0999 V2000
   -0.8330   15.0550   -2.2970 O   0  0  0  0  0  0  0  0  0  0  0  0
   -2.0940   14.9990   -2.7730 C   0  0  0  0  0  0  0  0  0  0  0  0
   -2.2670   14.9530   -3.9800 O   0  0  0  0  0  0  0  0  0  0  0  0
   -3.1350   14.9980   -1.6630 C   0  0  2  0  0  0  0  0  0  0  0  0
   -2.7650   13.9230   -0.6100 C   0  0  1  0  0  0  0  0  0  0  0  0
   -4.5300   14.9660   -2.3330 C   0  0  0  0  0  0  0  0  0  0  0  0
   -5.5150   13.9250   -1.7820 C   0  0  1  0  0  0  0  0  0  0  0  0
   -1.4010   13.2850   -1.1210 C   0  0  0  0  0  0  0  0  0  0  0  0
   -2.2810   14.2690    0.8520 C   0  0  1  0  0  0  0  0  0  0  0  0
   -3.9340   13.0270   -0.2100 N   0  0  0  0  0  0  0  0  0  0  0  0
   -4.8750   12.6020   -1.2530 C   0  0  2  0  0  0  0  0  0  0  0  0
   -6.1610   14.3300   -0.5290 C   0  0  0  0  0  0  0  0  0  0  0  0
   -1.2820   15.2410    1.0010 N   0  0  0  0  0  0  0  0  0  0  0  0
   -0.1150   13.9400   -0.5740 C   0  0  0  0  0  0  0  0  0  0  0  0
   -3.4990   14.3090    1.6590 C   0  0  0  0  0  0  0  0  0  0  0  0
   -4.3980   13.5520    1.0180 C   0  0  0  0  0  0  0  0  0  0  0  0
   -4.2120   11.7980   -2.1980 O   0  0  0  0  0  0  0  0  0  0  0  0
   -5.9900   11.7550   -0.5960 C   0  0  0  0  0  0  0  0  0  0  0  0
   -5.5740   14.6850    0.6490 C   0  0  0  0  0  0  0  0  0  0  0  0
   -7.5130   14.3380   -0.4240 O   0  0  0  0  0  0  0  0  0  0  0  0
   -0.1240   14.8580    0.4250 C   0  0  0  0  0  0  0  0  0  0  0  0
   -6.6190   14.8920    1.5560 C   0  0  0  0  0  0  0  0  0  0  0  0
   -7.7810   14.6770    0.8570 C   0  0  0  0  0  0  0  0  0  0  0  0
  1  2  1  0
  2  3  2  0
  4  2  1  6
  4  5  1  0
  4  6  1  0
  6  7  1  0
  5  8  1  6
  5  9  1  0
  5 10  1  0
  7 11  1  0
 10 11  1  0
  7 12  1  1
  9 13  1  0
  8 14  1  0
  9 15  1  1
 10 16  1  0
 15 16  2  0
 11 17  1  0
 11 18  1  1
 12 19  2  0
 12 20  1  0
 13 21  1  0
 14 21  2  0
 19 22  1  0
 20 23  1  0
 22 23  2  0
M  END
