mac-x0496-diamond-x0895_0_A
     RDKit          3D

 20 21  0  0  0  0  0  0  0  0999 V2000
   -9.7000   17.6710    4.7130 C   0  0  0  0  0  0  0  0  0  0  0  0
   -9.6520   16.7130    3.5860 C   0  0  0  0  0  0  0  0  0  0  0  0
  -10.3720   16.8240    2.4570 N   0  0  0  0  0  0  0  0  0  0  0  0
   -8.8420   15.6250    3.6260 N   0  0  0  0  0  0  0  0  0  0  0  0
  -10.0040   15.7170    1.7110 O   0  0  0  0  0  0  0  0  0  0  0  0
   -9.0860   15.0590    2.4700 C   0  0  0  0  0  0  0  0  0  0  0  0
   -8.4830   13.8280    1.9210 C   0  0  0  0  0  0  0  0  0  0  0  0
   -7.0690   14.1060    1.7170 N   0  0  0  0  0  0  0  0  0  0  0  0
   -6.5920   14.5420    0.4970 C   0  0  0  0  0  0  0  0  0  0  0  0
   -7.3400   14.9470   -0.3900 O   0  0  0  0  0  0  0  0  0  0  0  0
   -5.0730   14.4700    0.3120 C   0  0  2  0  0  0  0  0  0  0  0  0
   -4.2800   15.1950    1.4120 C   0  0  0  0  0  0  0  0  0  0  0  0
   -4.6220   14.9690   -1.0710 C   0  0  0  0  0  0  0  0  0  0  0  0
   -2.7840   15.0820    1.1470 C   0  0  0  0  0  0  0  0  0  0  0  0
   -3.1150   14.7490   -1.2770 C   0  0  1  0  0  0  0  0  0  0  0  0
   -2.6200   15.1110   -2.6620 C   0  0  0  0  0  0  0  0  0  0  0  0
   -1.9540   14.6980    1.9800 O   0  0  0  0  0  0  0  0  0  0  0  0
   -2.3020   15.4770   -0.2200 C   0  0  0  0  0  0  0  0  0  0  0  0
   -1.4450   15.1900   -2.9680 O   0  0  0  0  0  0  0  0  0  0  0  0
   -3.6010   15.3400   -3.5650 O   0  0  0  0  0  0  0  0  0  0  0  0
  1  2  1  0
  2  3  2  0
  2  4  1  0
  3  5  1  0
  4  6  2  0
  5  6  1  0
  6  7  1  0
  7  8  1  0
  8  9  1  0
  9 10  2  0
 11  9  1  1
 11 12  1  0
 11 13  1  0
 12 14  1  0
 13 15  1  0
 15 16  1  6
 14 17  2  0
 14 18  1  0
 15 18  1  0
 16 19  2  0
 16 20  1  0
M  END
