mac-x0417-mac-x0139
     RDKit          3D

 25 28  0  0  0  0  0  0  0  0999 V2000
    1.6050   12.6330   -2.3680 O   0  0  0  0  0  0  0  0  0  0  0  0
    0.7030   11.8360   -2.9720 C   0  0  0  0  0  0  0  0  0  0  0  0
    0.6850   10.6390   -2.7450 O   0  0  0  0  0  0  0  0  0  0  0  0
   -0.2150   12.5580   -3.9050 C   0  0  1  0  0  0  0  0  0  0  0  0
   -0.0320   14.0870   -3.5780 C   0  0  0  0  0  0  0  0  0  0  0  0
   -0.0440   11.8570   -5.2620 C   0  0  0  0  0  0  0  0  0  0  0  0
   -1.1430   14.7030   -2.7340 N   0  0  0  0  0  0  0  0  0  0  0  0
    0.9670   12.0980   -6.1280 N   0  0  0  0  0  0  0  0  0  0  0  0
   -0.8980   10.8370   -5.7920 C   0  0  0  0  0  0  0  0  0  0  0  0
   -2.3320   15.0790   -3.5140 C   0  0  0  0  0  0  0  0  0  0  0  0
    0.7680   11.2370   -7.2130 O   0  0  0  0  0  0  0  0  0  0  0  0
   -0.3430   10.4860   -7.0080 C   0  0  0  0  0  0  0  0  0  0  0  0
   -2.0660   10.1730   -5.3800 C   0  0  0  0  0  0  0  0  0  0  0  0
   -1.2490   14.7590   -1.2870 C   0  0  0  0  0  0  0  0  0  0  0  0
   -0.8660    9.5100   -7.8620 C   0  0  0  0  0  0  0  0  0  0  0  0
   -2.6210    9.1900   -6.2070 C   0  0  0  0  0  0  0  0  0  0  0  0
   -2.4750   14.8990   -0.6840 C   0  0  0  0  0  0  0  0  0  0  0  0
   -0.1050   14.7260   -0.4710 N   0  0  0  0  0  0  0  0  0  0  0  0
   -2.0320    8.8640   -7.4290 C   0  0  0  0  0  0  0  0  0  0  0  0
   -2.5540   14.9750    0.8000 C   0  0  0  0  0  0  0  0  0  0  0  0
   -0.2550   14.7720    0.8310 C   0  0  0  0  0  0  0  0  0  0  0  0
   -3.8400   15.0310   -1.0780 C   0  0  0  0  0  0  0  0  0  0  0  0
   -1.4260   14.8090    1.5070 N   0  0  0  0  0  0  0  0  0  0  0  0
   -3.7610   15.1960    1.2180 N   0  0  0  0  0  0  0  0  0  0  0  0
   -4.5200   15.2210    0.0620 C   0  0  0  0  0  0  0  0  0  0  0  0
  1  2  1  0
  2  3  2  0
  2  4  1  0
  4  5  1  6
  4  6  1  0
  5  7  1  0
  6  8  2  0
  6  9  1  0
  7 10  1  0
  8 11  1  0
  9 12  2  0
 11 12  1  0
  9 13  1  0
  7 14  1  0
 12 15  1  0
 13 16  2  0
 14 17  2  0
 14 18  1  0
 15 19  2  0
 16 19  1  0
 17 20  1  0
 18 21  2  0
 17 22  1  0
 20 23  1  0
 21 23  1  0
 20 24  2  0
 22 25  2  0
 24 25  1  0
M  END
