mac-x0397-diamond-x0855_0_A
     RDKit          3D

 24 26  0  0  0  0  0  0  0  0999 V2000
   -6.4940   14.9220   -2.6380 Cl  0  0  0  0  0  0  0  0  0  0  0  0
   -4.9250   14.9100   -1.9700 C   0  0  0  0  0  0  0  0  0  0  0  0
   -4.8850   14.9650   -0.5820 C   0  0  0  0  0  0  0  0  0  0  0  0
   -3.7650   14.8440   -2.7440 C   0  0  0  0  0  0  0  0  0  0  0  0
   -5.9560   15.0110    0.2870 N   0  0  0  0  0  0  0  0  0  0  0  0
   -3.6320   14.9690    0.0060 C   0  0  0  0  0  0  0  0  0  0  0  0
   -2.5130   14.8310   -2.1110 C   0  0  0  0  0  0  0  0  0  0  0  0
   -1.2170   14.7380   -2.8810 C   0  0  0  0  0  0  0  0  0  0  0  0
   -5.5200   15.0550    1.5050 C   0  0  0  0  0  0  0  0  0  0  0  0
   -3.8110   15.0680    1.6800 S   0  0  0  0  0  0  0  0  0  0  0  0
   -2.4520   14.9020   -0.7190 C   0  0  0  0  0  0  0  0  0  0  0  0
   -6.3580   15.0890    2.5570 N   0  0  0  0  0  0  0  0  0  0  0  0
    0.0160   14.5580   -1.9630 C   0  0  0  0  0  0  0  0  0  0  0  0
    1.3420   14.3190   -2.6890 C   0  0  0  0  0  0  0  0  0  0  0  0
    1.7460   12.9410   -2.6520 O   0  0  0  0  0  0  0  0  0  0  0  0
    0.9490   12.0440   -3.2980 C   0  0  0  0  0  0  0  0  0  0  0  0
    0.5530   11.0040   -2.7840 O   0  0  0  0  0  0  0  0  0  0  0  0
    0.6440   12.5080   -4.7000 C   0  0  0  0  0  0  0  0  0  0  0  0
   -0.4240   11.6960   -5.2340 N   0  0  0  0  0  0  0  0  0  0  0  0
   -0.3260   10.6980   -6.1550 C   0  0  0  0  0  0  0  0  0  0  0  0
   -1.6840   11.8990   -4.8030 N   0  0  0  0  0  0  0  0  0  0  0  0
   -1.5930   10.2210   -6.3120 C   0  0  0  0  0  0  0  0  0  0  0  0
   -2.3970   10.9880   -5.4680 C   0  0  0  0  0  0  0  0  0  0  0  0
   -2.1720    8.8340   -7.4130 Br  0  0  0  0  0  0  0  0  0  0  0  0
  1  2  1  0
  2  3  2  0
  2  4  1  0
  3  5  1  0
  3  6  1  0
  4  7  2  0
  7  8  1  0
  5  9  2  0
  6 10  1  0
  9 10  1  0
  6 11  2  0
  7 11  1  0
  9 12  1  0
  8 13  1  0
 13 14  1  0
 14 15  1  0
 15 16  1  0
 16 17  2  0
 16 18  1  0
 18 19  1  0
 19 20  1  0
 19 21  1  0
 20 22  2  0
 21 23  2  0
 22 23  1  0
 22 24  1  0
M  END
