mac-x0555-mac-x0397
     RDKit          3D

 12 13  0  0  0  0  0  0  0  0999 V2000
   -7.4790   14.4370    3.0490 N   0  0  0  0  0  0  0  0  0  0  0  0
   -6.9650   14.5570    1.7620 C   0  0  0  0  0  0  0  0  0  0  0  0
   -7.7610   14.4480    0.6410 C   0  0  0  0  0  0  0  0  0  0  0  0
   -5.6050   14.7930    1.5510 C   0  0  0  0  0  0  0  0  0  0  0  0
   -5.0920   14.9070    0.2520 C   0  0  0  0  0  0  0  0  0  0  0  0
   -7.3060   14.5530   -0.6170 N   0  0  0  0  0  0  0  0  0  0  0  0
   -5.9900   14.7780   -0.8170 C   0  0  0  0  0  0  0  0  0  0  0  0
   -3.7280   15.1380    0.0150 C   0  0  0  0  0  0  0  0  0  0  0  0
   -5.4800   14.8840   -2.0950 C   0  0  0  0  0  0  0  0  0  0  0  0
   -3.2510   15.2370   -1.2910 C   0  0  0  0  0  0  0  0  0  0  0  0
   -6.5690   14.7120   -3.4100 Cl  0  0  0  0  0  0  0  0  0  0  0  0
   -4.1310   15.1120   -2.3540 C   0  0  0  0  0  0  0  0  0  0  0  0
  1  2  1  0
  2  3  2  0
  2  4  1  0
  4  5  2  0
  3  6  1  0
  5  7  1  0
  6  7  2  0
  5  8  1  0
  7  9  1  0
  8 10  2  0
  9 11  1  0
  9 12  2  0
 10 12  1  0
M  END
