mac-x0303-mac-x0321
     RDKit          3D

 17 18  0  0  0  0  0  0  0  0999 V2000
   -8.4950   13.0420    2.6900 N   0  0  0  0  0  0  0  0  0  0  0  0
   -8.5410   14.6130    2.0940 S   0  0  0  0  0  0  0  0  0  0  0  0
   -8.2310   15.5130    3.1760 O   0  0  0  0  0  0  0  0  0  0  0  0
   -9.7210   14.7570    1.2780 O   0  0  0  0  0  0  0  0  0  0  0  0
   -7.1830   14.7410    0.9620 C   0  0  0  0  0  0  0  0  0  0  0  0
   -7.3600   14.9180   -0.3830 N   0  0  0  0  0  0  0  0  0  0  0  0
   -5.8990   14.6830    1.2670 N   0  0  0  0  0  0  0  0  0  0  0  0
   -6.1230   14.9600   -0.9690 C   0  0  0  0  0  0  0  0  0  0  0  0
   -5.2190   14.8080    0.0720 C   0  0  0  0  0  0  0  0  0  0  0  0
   -5.7410   15.1080   -2.2900 C   0  0  0  0  0  0  0  0  0  0  0  0
   -3.8400   14.7970   -0.2190 C   0  0  0  0  0  0  0  0  0  0  0  0
   -2.9040   14.6210    1.1980 Cl  0  0  0  0  0  0  0  0  0  0  0  0
   -4.3730   15.0760   -2.5580 C   0  0  0  0  0  0  0  0  0  0  0  0
   -3.4040   14.9120   -1.5650 C   0  0  0  0  0  0  0  0  0  0  0  0
   -2.0210   14.8740   -2.1360 C   0  0  0  0  0  0  0  0  0  0  0  0
   -0.9860   14.7940   -1.2850 O   0  0  0  0  0  0  0  0  0  0  0  0
   -1.8490   14.9030   -3.3520 O   0  0  0  0  0  0  0  0  0  0  0  0
  2  1  1  0
  2  3  2  0
  2  4  2  0
  2  5  1  0
  5  6  1  0
  5  7  2  0
  6  8  1  0
  7  9  1  0
  8  9  2  0
  8 10  1  0
  9 11  1  0
 11 12  1  0
 10 13  2  0
 11 14  2  0
 13 14  1  0
 14 15  1  0
 15 16  1  0
 15 17  2  0
M  END
