mac-x0555-diamond-x0465_0_A
     RDKit          3D

 27 29  0  0  0  0  0  0  0  0999 V2000
   -7.5430   14.3060    2.9090 N   0  0  0  0  0  0  0  0  0  0  0  0
   -7.0270   14.5240    1.6300 C   0  0  0  0  0  0  0  0  0  0  0  0
   -7.8210   14.7520    0.5100 C   0  0  0  0  0  0  0  0  0  0  0  0
   -5.6570   14.5190    1.4260 C   0  0  0  0  0  0  0  0  0  0  0  0
   -5.1250   14.7330    0.1540 C   0  0  0  0  0  0  0  0  0  0  0  0
   -7.3480   14.9700   -0.7410 N   0  0  0  0  0  0  0  0  0  0  0  0
   -6.0150   14.9600   -0.9120 C   0  0  0  0  0  0  0  0  0  0  0  0
   -3.7480   14.7150   -0.0630 C   0  0  0  0  0  0  0  0  0  0  0  0
   -5.4830   15.1740   -2.1730 C   0  0  0  0  0  0  0  0  0  0  0  0
   -3.2300   14.9160   -1.3370 C   0  0  0  0  0  0  0  0  0  0  0  0
   -1.7510   14.8590   -1.5390 C   0  0  0  0  0  0  0  0  0  0  0  0
   -4.1060   15.1560   -2.3990 C   0  0  0  0  0  0  0  0  0  0  0  0
   -1.2260   13.4620   -1.4870 C   0  0  0  0  0  0  0  0  0  0  0  0
    0.2820   13.5120   -1.5500 C   0  0  0  0  0  0  0  0  0  0  0  0
    0.6400   12.1510   -1.7590 N   0  0  0  0  0  0  0  0  0  0  0  0
    0.7790   11.7400   -2.9680 C   0  0  0  0  0  0  0  0  0  0  0  0
    0.6320   12.5880   -4.2620 C   0  0  1  0  0  0  0  0  0  0  0  0
    1.0740   10.4620   -3.1370 O   0  0  0  0  0  0  0  0  0  0  0  0
    1.9500   13.3330   -4.5140 C   0  0  0  0  0  0  0  0  0  0  0  0
    0.4190   11.8320   -5.4600 O   0  0  0  0  0  0  0  0  0  0  0  0
   -0.7290   11.1230   -5.7220 C   0  0  0  0  0  0  0  0  0  0  0  0
   -1.0080   10.3840   -6.8760 C   0  0  0  0  0  0  0  0  0  0  0  0
   -1.6980   11.1500   -4.7140 C   0  0  0  0  0  0  0  0  0  0  0  0
   -0.1250   10.3050   -7.8870 F   0  0  0  0  0  0  0  0  0  0  0  0
   -2.2000    9.6830   -7.0280 C   0  0  0  0  0  0  0  0  0  0  0  0
   -2.9010   10.4500   -4.8620 C   0  0  0  0  0  0  0  0  0  0  0  0
   -3.1510    9.7160   -6.0160 C   0  0  0  0  0  0  0  0  0  0  0  0
  1  2  1  0
  2  3  2  0
  2  4  1  0
  4  5  2  0
  3  6  1  0
  5  7  1  0
  6  7  2  0
  5  8  1  0
  7  9  1  0
  8 10  2  0
 10 11  1  0
  9 12  2  0
 10 12  1  0
 11 13  1  0
 13 14  1  0
 14 15  1  0
 15 16  2  3
 16 17  1  0
 16 18  1  0
 17 19  1  6
 17 20  1  0
 20 21  1  0
 21 22  2  0
 21 23  1  0
 22 24  1  0
 22 25  1  0
 23 26  2  0
 25 27  2  0
 26 27  1  0
M  END
