mac-x0190-mac-x0555
     RDKit          3D

 11 12  0  0  0  0  0  0  0  0999 V2000
   -9.2970   15.0680    2.3680 O   0  0  0  0  0  0  0  0  0  0  0  0
   -9.0260   14.1820    1.2900 C   0  0  0  0  0  0  0  0  0  0  0  0
   -7.6520   14.4670    0.8130 C   0  0  0  0  0  0  0  0  0  0  0  0
   -7.3920   14.7900   -0.4930 N   0  0  0  0  0  0  0  0  0  0  0  0
   -6.5480   14.4550    1.5220 N   0  0  0  0  0  0  0  0  0  0  0  0
   -6.0470   14.9930   -0.6250 C   0  0  0  0  0  0  0  0  0  0  0  0
   -5.5370   14.7770    0.6490 C   0  0  0  0  0  0  0  0  0  0  0  0
   -5.2550   15.3340   -1.7150 C   0  0  0  0  0  0  0  0  0  0  0  0
   -4.1620   14.9030    0.8710 C   0  0  0  0  0  0  0  0  0  0  0  0
   -3.8850   15.4520   -1.4770 C   0  0  0  0  0  0  0  0  0  0  0  0
   -3.3480   15.2380   -0.2050 C   0  0  0  0  0  0  0  0  0  0  0  0
  1  2  1  0
  2  3  1  0
  3  4  1  0
  3  5  2  0
  4  6  1  0
  5  7  1  0
  6  7  2  0
  6  8  1  0
  7  9  1  0
  8 10  2  0
  9 11  2  0
 10 11  1  0
M  END
