mac-x0328-mac-x0123
     RDKit          3D

 18 20  0  0  0  0  0  0  0  0999 V2000
   -1.7480   14.4760   -3.9160 O   0  0  0  0  0  0  0  0  0  0  0  0
   -1.9020   14.5520   -2.5830 C   0  0  0  0  0  0  0  0  0  0  0  0
   -0.9520   14.3950   -1.8380 O   0  0  0  0  0  0  0  0  0  0  0  0
   -3.3000   14.8510   -2.1700 C   0  0  0  0  0  0  0  0  0  0  0  0
   -3.4930   15.1350   -0.8790 C   0  0  0  0  0  0  0  0  0  0  0  0
   -4.4180   14.8490   -3.0970 C   0  0  0  0  0  0  0  0  0  0  0  0
   -4.8550   15.4970   -0.3410 C   0  0  1  0  0  0  0  0  0  0  0  0
   -5.6920   15.0460   -2.7040 C   0  0  0  0  0  0  0  0  0  0  0  0
   -6.0900   15.3020   -1.2850 C   0  0  2  0  0  0  0  0  0  0  0  0
   -5.0720   15.1120    1.0890 C   0  0  0  0  0  0  0  0  0  0  0  0
   -6.7650   16.5340   -1.2800 O   0  0  0  0  0  0  0  0  0  0  0  0
   -4.0860   15.4980    1.9660 N   0  0  0  0  0  0  0  0  0  0  0  0
   -7.1420   14.3980   -0.8930 N   0  0  0  0  0  0  0  0  0  0  0  0
   -6.1950   14.4690    1.3950 C   0  0  0  0  0  0  0  0  0  0  0  0
   -7.1500   14.0950    0.3320 C   0  0  0  0  0  0  0  0  0  0  0  0
   -6.7590   13.9940    2.6740 C   0  0  0  0  0  0  0  0  0  0  0  0
   -8.2240   13.2440    0.9040 C   0  0  0  0  0  0  0  0  0  0  0  0
   -8.2280   13.7680    2.3340 C   0  0  0  0  0  0  0  0  0  0  0  0
  1  2  1  0
  2  3  2  0
  2  4  1  0
  4  5  2  0
  4  6  1  0
  7  5  1  6
  6  8  2  0
  7  9  1  0
  8  9  1  0
  7 10  1  0
  9 11  1  6
 10 12  1  0
  9 13  1  0
 10 14  2  0
 13 15  2  0
 14 15  1  0
 14 16  1  0
 15 17  1  0
 16 18  1  0
 17 18  1  0
M  END
