mac-x0394-mac-x0509
     RDKit          3D

 25 27  0  0  0  0  0  0  0  0999 V2000
    0.9990   18.2570   -5.0590 Cl  0  0  0  0  0  0  0  0  0  0  0  0
    0.2720   16.7260   -4.8720 C   0  0  0  0  0  0  0  0  0  0  0  0
   -1.0810   16.6300   -5.1300 C   0  0  0  0  0  0  0  0  0  0  0  0
    1.0230   15.6160   -4.4760 C   0  0  0  0  0  0  0  0  0  0  0  0
    0.4000   14.3610   -4.3310 C   0  0  0  0  0  0  0  0  0  0  0  0
   -1.6980   15.4020   -4.9920 C   0  0  0  0  0  0  0  0  0  0  0  0
   -3.3820   15.2800   -5.3180 Cl  0  0  0  0  0  0  0  0  0  0  0  0
    1.1980   13.1390   -3.8990 C   0  0  0  0  0  0  0  0  0  0  0  0
   -0.9770   14.2730   -4.5980 C   0  0  0  0  0  0  0  0  0  0  0  0
    0.6510   12.3700   -2.6910 C   0  0  0  0  0  0  0  0  0  0  0  0
    0.1650   11.1620   -3.1040 O   0  0  0  0  0  0  0  0  0  0  0  0
    0.6380   12.7440   -1.5150 O   0  0  0  0  0  0  0  0  0  0  0  0
   -1.2650   10.9990   -3.0770 C   0  0  0  0  0  0  0  0  0  0  0  0
   -1.8870   10.8550   -4.4750 C   0  0  0  0  0  0  0  0  0  0  0  0
   -2.5930    9.5190   -4.7520 C   0  0  0  0  0  0  0  0  0  0  0  0
   -1.6520    8.5170   -5.2410 N   0  0  0  0  0  0  0  0  0  0  0  0
   -1.2570    8.5400   -6.4520 C   0  0  0  0  0  0  0  0  0  0  0  0
   -1.6810    9.5290   -7.5450 C   0  0  0  0  0  0  0  0  0  0  0  0
   -0.3430    7.6600   -6.9820 N   0  0  0  0  0  0  0  0  0  0  0  0
   -0.4920    9.4190   -8.4510 C   0  0  0  0  0  0  0  0  0  0  0  0
    0.2610    8.2930   -8.0720 C   0  0  0  0  0  0  0  0  0  0  0  0
   -0.1160   10.2290   -9.5010 C   0  0  0  0  0  0  0  0  0  0  0  0
    1.4120    7.9570   -8.7470 C   0  0  0  0  0  0  0  0  0  0  0  0
    1.0480    9.8960  -10.1890 C   0  0  0  0  0  0  0  0  0  0  0  0
    1.8050    8.7690   -9.8180 C   0  0  0  0  0  0  0  0  0  0  0  0
  1  2  1  0
  2  3  2  0
  2  4  1  0
  4  5  2  0
  3  6  1  0
  6  7  1  0
  5  8  1  0
  5  9  1  0
  6  9  2  0
  8 10  1  0
 10 11  1  0
 10 12  2  0
 11 13  1  0
 13 14  1  0
 14 15  1  0
 15 16  1  0
 16 17  2  3
 17 18  1  0
 17 19  1  0
 18 20  1  0
 19 21  1  0
 20 21  2  0
 20 22  1  0
 21 23  1  0
 22 24  2  0
 23 25  2  0
 24 25  1  0
M  END
