mac-x0358-mac-x0375
     RDKit          3D

 18 19  0  0  0  0  0  0  0  0999 V2000
    1.3050   13.0400   -2.4140 O   0  0  0  0  0  0  0  0  0  0  0  0
    0.6440   12.2220   -3.2740 C   0  0  0  0  0  0  0  0  0  0  0  0
    0.1380   11.1780   -2.8860 O   0  0  0  0  0  0  0  0  0  0  0  0
    0.5900   12.7350   -4.7320 C   0  0  1  0  0  0  0  0  0  0  0  0
    0.7690   11.6040   -5.6190 O   0  0  0  0  0  0  0  0  0  0  0  0
   -0.6860   13.5160   -5.0440 C   0  0  0  0  0  0  0  0  0  0  0  0
   -1.8210   12.9590   -5.6640 C   0  0  0  0  0  0  0  0  0  0  0  0
   -0.7440   14.8790   -4.7000 C   0  0  0  0  0  0  0  0  0  0  0  0
   -0.2890   10.7330   -5.7340 C   0  0  0  0  0  0  0  0  0  0  0  0
   -1.8290   11.6490   -6.0270 O   0  0  0  0  0  0  0  0  0  0  0  0
   -2.9620   13.7160   -5.9250 C   0  0  0  0  0  0  0  0  0  0  0  0
   -1.8880   15.6430   -4.9620 C   0  0  0  0  0  0  0  0  0  0  0  0
   -0.3500    9.8730   -6.8300 C   0  0  0  0  0  0  0  0  0  0  0  0
   -1.2940   10.7070   -4.7630 C   0  0  0  0  0  0  0  0  0  0  0  0
   -2.9950   15.0620   -5.5720 C   0  0  0  0  0  0  0  0  0  0  0  0
   -1.4170    8.9850   -6.9560 C   0  0  0  0  0  0  0  0  0  0  0  0
   -2.3630    9.8160   -4.8940 C   0  0  0  0  0  0  0  0  0  0  0  0
   -2.4210    8.9560   -5.9910 C   0  0  0  0  0  0  0  0  0  0  0  0
  1  2  1  0
  2  3  2  0
  2  4  1  0
  4  5  1  6
  4  6  1  0
  6  7  2  0
  6  8  1  0
  5  9  1  0
  7 10  1  0
  7 11  1  0
  8 12  2  0
  9 13  2  0
  9 14  1  0
 11 15  2  0
 12 15  1  0
 13 16  1  0
 14 17  2  0
 16 18  2  0
 17 18  1  0
M  END
