mac-x0338-mac-x0326
     RDKit          3D

 18 19  0  0  0  0  0  0  0  0999 V2000
   -4.1380   15.4760    1.9290 N   0  0  0  0  0  0  0  0  0  0  0  0
   -5.0940   15.1380    1.0290 C   0  0  0  0  0  0  0  0  0  0  0  0
   -6.2530   15.0260    1.4330 O   0  0  0  0  0  0  0  0  0  0  0  0
   -4.6580   14.8780   -0.4290 C   0  0  2  0  0  0  0  0  0  0  0  0
   -3.4290   15.5660   -0.9360 N   0  0  0  0  0  0  0  0  0  0  0  0
   -5.7790   15.0140   -1.4610 C   0  0  0  0  0  0  0  0  0  0  0  0
   -2.8450   14.6110   -1.8600 C   0  0  1  0  0  0  0  0  0  0  0  0
   -5.2640   14.5820   -2.7760 N   0  0  0  0  0  0  0  0  0  0  0  0
   -4.0060   13.7970   -2.5380 C   0  0  0  0  0  0  0  0  0  0  0  0
   -1.9030   15.1900   -2.8820 N   0  0  0  0  0  0  0  0  0  0  0  0
   -1.9830   13.8470   -0.8840 C   0  0  0  0  0  0  0  0  0  0  0  0
   -0.8150   14.2570   -3.2610 C   0  0  2  0  0  0  0  0  0  0  0  0
   -0.4420   13.5290   -1.6660 S   0  0  0  0  0  0  0  0  0  0  0  0
    0.4580   14.7560   -3.9730 C   0  0  0  0  0  0  0  0  0  0  0  0
    1.3080   13.5600   -4.4250 C   0  0  0  0  0  0  0  0  0  0  0  0
    1.2640   12.4330   -3.4200 C   0  0  0  0  0  0  0  0  0  0  0  0
    0.4990   11.3940   -3.8120 O   0  0  0  0  0  0  0  0  0  0  0  0
    1.8410   12.4370   -2.3480 O   0  0  0  0  0  0  0  0  0  0  0  0
  1  2  1  0
  2  3  2  0
  4  2  1  1
  4  5  1  0
  4  6  1  0
  5  7  1  0
  6  8  1  0
  7  9  1  6
  8  9  1  0
  7 10  1  0
  7 11  1  0
 10 12  1  0
 11 13  2  0
 12 13  1  0
 12 14  1  1
 14 15  1  0
 15 16  1  0
 16 17  1  0
 16 18  2  0
M  END
