mac-x0527-diamond-x0844_0_A
     RDKit          3D

 17 18  0  0  0  0  0  0  0  0999 V2000
   -3.6740   15.4950   -3.6210 O   0  0  0  0  0  0  0  0  0  0  0  0
   -3.1160   15.0760   -2.6160 C   0  0  0  0  0  0  0  0  0  0  0  0
   -1.8050   14.6250   -2.6280 N   0  0  0  0  0  0  0  0  0  0  0  0
   -3.8500   15.0250   -1.3070 C   0  0  0  0  0  0  0  0  0  0  0  0
   -1.0170   14.7020   -3.8460 C   0  0  0  0  0  0  0  0  0  0  0  0
   -5.2290   15.0470   -1.2860 C   0  0  0  0  0  0  0  0  0  0  0  0
   -3.1010   14.9540   -0.1770 N   0  0  0  0  0  0  0  0  0  0  0  0
   -0.9400   13.3580   -4.5370 C   0  0  0  0  0  0  0  0  0  0  0  0
   -5.8740   14.9870   -0.0730 N   0  0  0  0  0  0  0  0  0  0  0  0
   -3.7540   14.9040    0.9990 C   0  0  0  0  0  0  0  0  0  0  0  0
   -7.1520   14.9970   -0.0360 O   0  0  0  0  0  0  0  0  0  0  0  0
   -1.8640   12.3440   -4.2360 C   0  0  0  0  0  0  0  0  0  0  0  0
    0.0610   13.1030   -5.4920 C   0  0  0  0  0  0  0  0  0  0  0  0
   -5.1270   14.9160    1.0860 C   0  0  0  0  0  0  0  0  0  0  0  0
   -1.7920   11.1040   -4.8740 C   0  0  0  0  0  0  0  0  0  0  0  0
    0.1300   11.8600   -6.1270 C   0  0  0  0  0  0  0  0  0  0  0  0
   -0.7950   10.8630   -5.8180 C   0  0  0  0  0  0  0  0  0  0  0  0
  1  2  2  0
  2  3  1  0
  2  4  1  0
  3  5  1  0
  4  6  2  0
  4  7  1  0
  5  8  1  0
  6  9  1  0
  7 10  2  0
  9 11  1  0
  8 12  2  0
  8 13  1  0
  9 14  2  0
 10 14  1  0
 12 15  1  0
 13 16  2  0
 15 17  2  0
 16 17  1  0
M  CHG  2   9   1  11  -1
M  END
