mac-x0510-mac-x0436
     RDKit          3D

 29 32  0  0  0  0  0  0  0  0999 V2000
   -6.1310   14.9840    0.8090 O   0  0  0  0  0  0  0  0  0  0  0  0
   -4.9520   15.1080    0.4980 C   0  0  0  0  0  0  0  0  0  0  0  0
   -4.5820   15.4380   -0.7830 N   0  0  0  0  0  0  0  0  0  0  0  0
   -3.9410   14.9120    1.3990 N   0  0  0  0  0  0  0  0  0  0  0  0
   -2.6560   14.8490    0.9580 C   0  0  0  0  0  0  0  0  0  0  0  0
   -3.3760   15.1280   -1.3580 C   0  0  0  0  0  0  0  0  0  0  0  0
   -3.3590   15.0570   -2.6360 N   0  0  0  0  0  0  0  0  0  0  0  0
   -2.3620   14.9490   -0.3710 C   0  0  0  0  0  0  0  0  0  0  0  0
   -1.5500   14.6940    1.7270 N   0  0  0  0  0  0  0  0  0  0  0  0
   -2.1880   14.7370   -3.4530 C   0  0  0  0  0  0  0  0  0  0  0  0
   -0.9970   14.8530   -0.4160 N   0  0  0  0  0  0  0  0  0  0  0  0
   -0.5570   14.7070    0.8700 C   0  0  0  0  0  0  0  0  0  0  0  0
   -1.5380   13.4060   -3.0240 C   0  0  0  0  0  0  0  0  0  0  0  0
   -2.1700   12.2740   -3.7080 N   0  0  0  0  0  0  0  0  0  0  0  0
   -1.6940   11.6740   -4.7660 C   0  0  0  0  0  0  0  0  0  0  0  0
   -0.3850   12.0110   -5.5340 C   0  0  0  0  0  0  0  0  0  0  0  0
   -2.4510   10.6190   -5.2540 N   0  0  0  0  0  0  0  0  0  0  0  0
    0.4350   13.2450   -5.2130 C   0  0  0  0  0  0  0  0  0  0  0  0
   -1.8880    9.7600   -6.2360 C   0  0  0  0  0  0  0  0  0  0  0  0
    0.0570   11.2430   -6.4870 N   0  0  0  0  0  0  0  0  0  0  0  0
    1.6670   12.9520   -4.3600 C   0  0  0  0  0  0  0  0  0  0  0  0
   -0.6520   10.0850   -6.8320 C   0  0  0  0  0  0  0  0  0  0  0  0
   -2.5540    8.5900   -6.6150 C   0  0  0  0  0  0  0  0  0  0  0  0
    1.3440   12.3660   -2.9980 C   0  0  0  0  0  0  0  0  0  0  0  0
   -0.1080    9.2390   -7.7980 C   0  0  0  0  0  0  0  0  0  0  0  0
   -2.0000    7.7520   -7.5840 C   0  0  0  0  0  0  0  0  0  0  0  0
    0.8020   11.1290   -3.0470 O   0  0  0  0  0  0  0  0  0  0  0  0
    1.5430   12.9160   -1.9400 O   0  0  0  0  0  0  0  0  0  0  0  0
   -0.7770    8.0750   -8.1740 C   0  0  0  0  0  0  0  0  0  0  0  0
  1  2  2  0
  2  3  1  0
  2  4  1  0
  4  5  1  0
  3  6  1  0
  6  7  2  3
  5  8  2  0
  6  8  1  0
  5  9  1  0
  7 10  1  0
  8 11  1  0
  9 12  2  0
 11 12  1  0
 10 13  1  0
 13 14  1  0
 14 15  2  3
 15 16  1  0
 15 17  1  0
 16 18  1  0
 17 19  1  0
 16 20  2  0
 18 21  1  0
 19 22  2  0
 20 22  1  0
 19 23  1  0
 21 24  1  0
 22 25  1  0
 23 26  2  0
 24 27  1  0
 24 28  2  0
 25 29  2  0
 26 29  1  0
M  END
