mac-x0213-diamond-x0895_1_A
     RDKit          3D

 21 23  0  0  0  0  0  0  0  0999 V2000
   -0.3080   11.6020   -3.6930 O   0  0  0  0  0  0  0  0  0  0  0  0
    0.0020   13.1620   -2.7790 C   0  0  0  0  0  0  0  0  0  0  0  0
   -0.3000   13.7670   -1.6040 N   0  0  0  0  0  0  0  0  0  0  0  0
    0.6570   13.2380   -3.9370 C   0  0  0  0  0  0  0  0  0  0  0  0
    0.1480   15.1000   -1.1480 C   0  0  0  0  0  0  0  0  0  0  0  0
   -1.2690   13.7310   -3.7970 C   0  0  0  0  0  0  0  0  0  0  0  0
    1.2370   14.9760   -3.2000 C   0  0  0  0  0  0  0  0  0  0  0  0
   -0.2280   15.4390    0.3270 C   0  0  0  0  0  0  0  0  0  0  0  0
   -1.3170   15.5180   -4.5030 C   0  0  0  0  0  0  0  0  0  0  0  0
    0.1610   16.2450   -4.1590 C   0  0  0  0  0  0  0  0  0  0  0  0
   -1.4060   14.8380    1.0190 N   0  0  0  0  0  0  0  0  0  0  0  0
   -2.3000   16.1710   -5.1740 C   0  0  0  0  0  0  0  0  0  0  0  0
    0.4460   17.5180   -4.5440 C   0  0  0  0  0  0  0  0  0  0  0  0
   -1.9190   17.4860   -5.5340 C   0  0  0  0  0  0  0  0  0  0  0  0
   -0.6290   18.1150   -5.2380 C   0  0  0  0  0  0  0  0  0  0  0  0
   -2.6120   14.8510    0.5590 C   0  0  0  0  0  0  0  0  0  0  0  0
   -2.9800   15.4340   -0.7850 C   0  0  0  0  0  0  0  0  0  0  0  0
   -3.7510   14.3710    1.1590 N   0  0  0  0  0  0  0  0  0  0  0  0
   -4.4020   15.2200   -0.7700 N   0  0  0  0  0  0  0  0  0  0  0  0
   -4.8340   14.7540    0.4430 C   0  0  0  0  0  0  0  0  0  0  0  0
   -6.0090   14.7090    0.7810 O   0  0  0  0  0  0  0  0  0  0  0  0
  1  2  1  0
  2  3  2  3
  2  4  1  0
  3  5  1  0
  4  6  1  0
  4  7  1  0
  5  8  1  0
  6  9  1  0
  7 10  1  0
  9 10  2  0
  8 11  1  0
  9 12  1  0
 10 13  1  0
 12 14  2  0
 13 15  2  0
 14 15  1  0
 11 16  2  3
 16 17  1  0
 16 18  1  0
 17 19  1  0
 18 20  1  0
 19 20  1  0
 20 21  2  0
M  END
