mac-x0338-mac-x0392
     RDKit          3D

 17 18  0  0  0  0  0  0  0  0999 V2000
   -4.5620   15.6790    2.2820 N   0  0  0  0  0  0  0  0  0  0  0  0
   -5.4300   15.1260    1.4010 C   0  0  0  0  0  0  0  0  0  0  0  0
   -6.5680   14.8100    1.7230 O   0  0  0  0  0  0  0  0  0  0  0  0
   -4.8700   14.9720    0.0400 C   0  0  0  0  0  0  0  0  0  0  0  0
   -3.5300   14.5970   -0.1170 N   0  0  0  0  0  0  0  0  0  0  0  0
   -5.6750   15.2050   -1.0240 C   0  0  0  0  0  0  0  0  0  0  0  0
   -2.9740   14.7470   -1.4110 C   0  0  0  0  0  0  0  0  0  0  0  0
   -5.1790   15.0700   -2.2970 N   0  0  0  0  0  0  0  0  0  0  0  0
   -2.7550   14.5670    1.0300 N   0  0  0  0  0  0  0  0  0  0  0  0
   -3.8100   14.9810   -2.4710 C   0  0  0  0  0  0  0  0  0  0  0  0
   -1.5270   14.6340   -1.5040 C   0  0  0  0  0  0  0  0  0  0  0  0
   -1.4810   14.5350    0.8790 C   0  0  0  0  0  0  0  0  0  0  0  0
   -0.8770   14.6360   -2.8240 C   0  0  0  0  0  0  0  0  0  0  0  0
   -0.7390   14.5280   -0.4090 C   0  0  0  0  0  0  0  0  0  0  0  0
    0.6410   14.4230   -0.3710 N   0  0  0  0  0  0  0  0  0  0  0  0
   -1.4410   14.6420   -3.9030 O   0  0  0  0  0  0  0  0  0  0  0  0
    0.4670   14.6300   -2.7630 O   0  0  0  0  0  0  0  0  0  0  0  0
  1  2  1  0
  2  3  2  0
  2  4  1  0
  4  5  1  0
  4  6  2  0
  5  7  1  0
  6  8  1  0
  5  9  1  0
  7 10  2  0
  8 10  1  0
  7 11  1  0
  9 12  2  0
 11 13  1  0
 11 14  2  0
 12 14  1  0
 14 15  1  0
 13 16  2  0
 13 17  1  0
M  END
