mac-x0437-mac-x0255
     RDKit          3D

 23 26  0  0  0  0  0  0  0  0999 V2000
    0.9940   13.0230   -1.9290 O   0  0  0  0  0  0  0  0  0  0  0  0
    0.9660   12.3150   -3.0790 C   0  0  0  0  0  0  0  0  0  0  0  0
    0.6420   11.1380   -3.0790 O   0  0  0  0  0  0  0  0  0  0  0  0
    1.3880   13.1160   -4.3040 C   0  0  1  0  0  0  0  0  0  0  0  0
    1.1210   12.4460   -5.6340 C   0  0  0  0  0  0  0  0  0  0  0  0
    0.6470   14.3740   -4.5520 C   0  0  0  0  0  0  0  0  0  0  0  0
   -0.0400   11.5920   -5.7100 N   0  0  0  0  0  0  0  0  0  0  0  0
    1.1840   15.6050   -4.7310 C   0  0  0  0  0  0  0  0  0  0  0  0
   -1.0520   14.3770   -4.6950 S   0  0  0  0  0  0  0  0  0  0  0  0
   -1.1680   11.5370   -4.9290 C   0  0  0  0  0  0  0  0  0  0  0  0
   -0.1400   10.6540   -6.6680 C   0  0  0  0  0  0  0  0  0  0  0  0
    0.2120   16.5920   -5.0300 C   0  0  0  0  0  0  0  0  0  0  0  0
   -1.0750   16.0540   -5.0480 C   0  0  0  0  0  0  0  0  0  0  0  0
   -1.9890   10.5880   -5.3500 N   0  0  0  0  0  0  0  0  0  0  0  0
   -1.3500   10.0290   -6.4350 C   0  0  0  0  0  0  0  0  0  0  0  0
    0.7280   10.3170   -7.6980 C   0  0  0  0  0  0  0  0  0  0  0  0
    0.3810   17.9560   -5.3050 C   0  0  0  0  0  0  0  0  0  0  0  0
   -2.1950   16.8420   -5.3350 C   0  0  0  0  0  0  0  0  0  0  0  0
   -1.7290    8.9800   -7.2820 C   0  0  0  0  0  0  0  0  0  0  0  0
    0.3420    9.2780   -8.5300 C   0  0  0  0  0  0  0  0  0  0  0  0
   -0.7290   18.7360   -5.5990 C   0  0  0  0  0  0  0  0  0  0  0  0
   -1.9900   18.1920   -5.6140 C   0  0  0  0  0  0  0  0  0  0  0  0
   -0.8660    8.6140   -8.3280 C   0  0  0  0  0  0  0  0  0  0  0  0
  1  2  1  0
  2  3  2  0
  2  4  1  0
  4  5  1  6
  4  6  1  0
  5  7  1  0
  6  8  2  0
  6  9  1  0
  7 10  1  0
  7 11  1  0
  8 12  1  0
  9 13  1  0
 12 13  2  0
 10 14  2  0
 11 15  2  0
 14 15  1  0
 11 16  1  0
 12 17  1  0
 13 18  1  0
 15 19  1  0
 16 20  2  0
 17 21  2  0
 18 22  2  0
 21 22  1  0
 19 23  2  0
 20 23  1  0
M  END
