mac-x0381-mac-x0228
     RDKit          3D

 27 30  0  0  0  0  0  0  0  0999 V2000
   -8.3870   13.4290    4.7940 N   0  0  0  0  0  0  0  0  0  0  0  0
   -8.2270   14.6750    4.0820 C   0  0  0  0  0  0  0  0  0  0  0  0
   -7.5650   15.4890    5.0770 N   0  0  0  0  0  0  0  0  0  0  0  0
   -7.2810   14.4130    2.9230 C   0  0  0  0  0  0  0  0  0  0  0  0
   -9.5590   15.2310    3.5830 C   0  0  0  0  0  0  0  0  0  0  0  0
   -7.9450   14.4080    1.5530 C   0  0  0  0  0  0  0  0  0  0  0  0
   -9.6490   16.0160    2.4190 C   0  0  0  0  0  0  0  0  0  0  0  0
  -10.7480   14.9700    4.2770 C   0  0  0  0  0  0  0  0  0  0  0  0
  -10.8650   16.5270    1.9460 C   0  0  0  0  0  0  0  0  0  0  0  0
  -11.9730   15.4710    3.8240 C   0  0  0  0  0  0  0  0  0  0  0  0
   -6.9040   14.1830    0.4910 C   0  0  1  0  0  0  0  0  0  0  0  0
  -12.0460   16.2470    2.6610 C   0  0  0  0  0  0  0  0  0  0  0  0
  -10.9290   17.3070    0.7810 C   0  0  0  0  0  0  0  0  0  0  0  0
   -7.1470   15.0110   -0.6590 O   0  0  0  0  0  0  0  0  0  0  0  0
   -5.4680   14.4670    0.9650 C   0  0  0  0  0  0  0  0  0  0  0  0
  -13.2690   16.7540    2.1910 C   0  0  0  0  0  0  0  0  0  0  0  0
  -12.1520   17.8040    0.3270 C   0  0  0  0  0  0  0  0  0  0  0  0
   -4.8910   14.6620   -0.3740 C   0  0  0  0  0  0  0  0  0  0  0  0
   -5.9180   14.9670   -1.2510 C   0  0  0  0  0  0  0  0  0  0  0  0
  -13.3190   17.5270    1.0320 C   0  0  0  0  0  0  0  0  0  0  0  0
   -3.5780   14.5720   -0.8010 C   0  0  0  0  0  0  0  0  0  0  0  0
   -5.6960   15.1920   -2.5780 C   0  0  0  0  0  0  0  0  0  0  0  0
   -3.3320   14.7990   -2.1650 C   0  0  0  0  0  0  0  0  0  0  0  0
   -4.3810   15.1050   -3.0420 C   0  0  0  0  0  0  0  0  0  0  0  0
   -1.9670   14.7170   -2.7370 C   0  0  0  0  0  0  0  0  0  0  0  0
   -1.0070   14.5290   -1.8130 O   0  0  0  0  0  0  0  0  0  0  0  0
   -1.7470   14.8060   -3.9320 O   0  0  0  0  0  0  0  0  0  0  0  0
  2  1  1  0
  2  3  1  0
  2  4  1  0
  2  5  1  0
  4  6  1  0
  5  7  2  0
  5  8  1  0
  7  9  1  0
  8 10  2  0
 11  6  1  1
  9 12  2  0
 10 12  1  0
  9 13  1  0
 11 14  1  0
 11 15  1  0
 12 16  1  0
 13 17  2  0
 15 18  1  0
 14 19  1  0
 18 19  2  0
 16 20  2  0
 17 20  1  0
 18 21  1  0
 19 22  1  0
 21 23  2  0
 22 24  2  0
 23 24  1  0
 23 25  1  0
 25 26  1  0
 25 27  2  0
M  END
