mac-x0361-diamond-x0837_0_A
     RDKit          3D

 10 10  0  0  0  0  0  0  0  0999 V2000
   -6.2020   14.7550    1.6420 N   0  0  0  0  0  0  0  0  0  0  0  0
   -6.4750   14.7450    0.3010 C   0  0  0  0  0  0  0  0  0  0  0  0
   -7.6290   14.6610   -0.0960 O   0  0  0  0  0  0  0  0  0  0  0  0
   -5.3190   14.8390   -0.6350 C   0  0  0  0  0  0  0  0  0  0  0  0
   -3.9970   14.7450   -0.1840 C   0  0  0  0  0  0  0  0  0  0  0  0
   -5.5760   15.0230   -1.9970 C   0  0  0  0  0  0  0  0  0  0  0  0
   -2.9390   14.8330   -1.0890 C   0  0  0  0  0  0  0  0  0  0  0  0
   -4.5130   15.1100   -2.8980 C   0  0  0  0  0  0  0  0  0  0  0  0
   -3.2110   15.0170   -2.4410 C   0  0  0  0  0  0  0  0  0  0  0  0
   -2.2160   15.1140   -3.3680 O   0  0  0  0  0  0  0  0  0  0  0  0
  1  2  1  0
  2  3  2  0
  2  4  1  0
  4  5  2  0
  4  6  1  0
  5  7  1  0
  6  8  2  0
  7  9  2  0
  8  9  1  0
  9 10  1  0
M  END
