mac-x0213-diamond-x0628_0_A
     RDKit          3D

 21 23  0  0  0  0  0  0  0  0999 V2000
   -0.5620   12.1880   -2.5060 O   0  0  0  0  0  0  0  0  0  0  0  0
    0.4890   13.0550   -2.9290 C   0  0  0  0  0  0  0  0  0  0  0  0
    1.1330   13.4450   -1.7390 O   0  0  0  0  0  0  0  0  0  0  0  0
    1.3090   12.2500   -3.8850 C   0  0  0  0  0  0  0  0  0  0  0  0
   -0.0370   14.2520   -3.7220 C   0  0  0  0  0  0  0  0  0  0  0  0
    0.9190   12.4430   -5.3490 C   0  0  0  0  0  0  0  0  0  0  0  0
   -1.4780   14.7350   -3.5670 C   0  0  0  0  0  0  0  0  0  0  0  0
    0.8240   15.5060   -3.6340 C   0  0  0  0  0  0  0  0  0  0  0  0
   -1.3570   15.9570   -4.4230 C   0  0  0  0  0  0  0  0  0  0  0  0
   -0.0290   16.4030   -4.4550 C   0  0  0  0  0  0  0  0  0  0  0  0
   -0.1360   11.5530   -5.7650 N   0  0  0  0  0  0  0  0  0  0  0  0
   -2.3430   16.6240   -5.1180 C   0  0  0  0  0  0  0  0  0  0  0  0
    0.3440   17.5210   -5.1710 C   0  0  0  0  0  0  0  0  0  0  0  0
    0.1450   10.6190   -6.6820 N   0  0  0  0  0  0  0  0  0  0  0  0
   -1.4550   11.4670   -5.3660 C   0  0  0  0  0  0  0  0  0  0  0  0
   -2.1400   12.3260   -4.3790 C   0  0  0  0  0  0  0  0  0  0  0  0
   -1.9800   17.7580   -5.8460 C   0  0  0  0  0  0  0  0  0  0  0  0
   -0.6480   18.2050   -5.8720 C   0  0  0  0  0  0  0  0  0  0  0  0
   -2.0180   10.4730   -6.0140 N   0  0  0  0  0  0  0  0  0  0  0  0
   -1.0150    9.9870   -6.7960 C   0  0  0  0  0  0  0  0  0  0  0  0
   -1.1920    8.8470   -7.7000 C   0  0  0  0  0  0  0  0  0  0  0  0
  2  1  1  0
  2  3  1  0
  2  4  1  0
  2  5  1  0
  4  6  1  0
  5  7  1  0
  5  8  1  0
  7  9  1  0
  8 10  1  0
  9 10  2  0
  6 11  1  0
  9 12  1  0
 10 13  1  0
 11 14  1  0
 11 15  1  0
 15 16  1  0
 12 17  2  0
 13 18  2  0
 17 18  1  0
 15 19  2  0
 14 20  2  0
 19 20  1  0
 20 21  1  0
M  END
