mac-x0301-diamond-x1018_0_A
     RDKit          3D

 18 20  0  0  0  0  0  0  0  0999 V2000
    0.4360   14.0190   -3.2330 O   0  0  0  0  0  0  0  0  0  0  0  0
   -0.9100   14.1230   -3.2860 C   0  0  0  0  0  0  0  0  0  0  0  0
   -1.4970   13.7620   -4.2900 O   0  0  0  0  0  0  0  0  0  0  0  0
   -1.4830   14.7360   -2.0190 C   0  0  2  0  0  0  0  0  0  0  0  0
   -1.3930   13.8990   -0.7400 C   0  0  2  0  0  0  0  0  0  0  0  0
   -2.8590   15.3910   -2.2040 C   0  0  0  0  0  0  0  0  0  0  0  0
   -2.0970   14.6390    0.3770 C   0  0  1  0  0  0  0  0  0  0  0  0
   -3.8230   15.4230   -1.2510 C   0  0  0  0  0  0  0  0  0  0  0  0
   -0.0990   13.5820   -0.1820 O   0  0  0  0  0  0  0  0  0  0  0  0
   -3.6580   14.7570    0.0890 C   0  0  1  0  0  0  0  0  0  0  0  0
   -1.6100   14.0070    1.5740 O   0  0  0  0  0  0  0  0  0  0  0  0
   -0.2190   13.9550    1.2150 C   0  0  0  0  0  0  0  0  0  0  0  0
   -4.3710   13.4840   -0.2100 N   0  0  0  0  0  0  0  0  0  0  0  0
   -4.3680   15.3730    1.2890 C   0  0  0  0  0  0  0  0  0  0  0  0
   -5.8270   13.7160   -0.3660 N   0  0  0  0  0  0  0  0  0  0  0  0
   -5.6030   14.9920    1.6810 C   0  0  0  0  0  0  0  0  0  0  0  0
   -6.3990   13.9620    0.9530 C   0  0  1  0  0  0  0  0  0  0  0  0
   -8.0630   14.5340    0.6780 Cl  0  0  0  0  0  0  0  0  0  0  0  0
  1  2  1  0
  2  3  2  0
  4  2  1  6
  4  5  1  0
  4  6  1  0
  5  7  1  0
  6  8  2  0
  5  9  1  1
  7 10  1  0
 10  8  1  6
  7 11  1  1
  9 12  1  0
 11 12  1  0
 10 13  1  0
 10 14  1  0
 13 15  1  0
 14 16  2  0
 15 17  1  0
 16 17  1  0
 17 18  1  6
M  END
