mac-x0328-mac-x0590
     RDKit          3D

 21 23  0  0  0  0  0  0  0  0999 V2000
   -1.6720   15.5070   -3.7430 O   0  0  0  0  0  0  0  0  0  0  0  0
   -1.6130   14.2580   -3.1030 C   0  0  0  0  0  0  0  0  0  0  0  0
   -0.4810   14.4370   -2.2520 O   0  0  0  0  0  0  0  0  0  0  0  0
   -1.3020   13.1570   -4.2220 C   0  0  0  0  0  0  0  0  0  0  0  0
   -2.8910   14.1260   -2.1200 C   0  0  1  0  0  0  0  0  0  0  0  0
   -2.7800   14.8150   -0.6600 C   0  0  1  0  0  0  0  0  0  0  0  0
   -4.1600   14.5120   -2.8910 C   0  0  0  0  0  0  0  0  0  0  0  0
    0.0280   12.2970   -4.2910 C   0  0  2  0  0  0  0  0  0  0  0  0
   -4.1290   15.4370   -0.0530 C   0  0  2  0  0  0  0  0  0  0  0  0
   -5.2410   15.1150   -2.3840 C   0  0  0  0  0  0  0  0  0  0  0  0
    0.7810   12.1320   -2.9700 C   0  0  0  0  0  0  0  0  0  0  0  0
    1.1000   12.8740   -5.2410 C   0  0  0  0  0  0  0  0  0  0  0  0
   -2.2170   13.9030    0.4100 N   0  0  0  0  0  0  0  0  0  0  0  0
   -1.6030   15.7940   -0.6580 C   0  0  0  0  0  0  0  0  0  0  0  0
   -4.5840   14.7850    1.1920 N   0  0  0  0  0  0  0  0  0  0  0  0
   -5.4020   15.5300   -0.9750 C   0  0  1  0  0  0  0  0  0  0  0  0
    2.3520   13.0570   -4.4020 C   0  0  0  0  0  0  0  0  0  0  0  0
    2.1860   12.2500   -3.2410 O   0  0  0  0  0  0  0  0  0  0  0  0
   -0.4030   15.0140   -0.3680 N   0  0  0  0  0  0  0  0  0  0  0  0
   -0.8640   14.2950    0.7800 C   0  0  0  0  0  0  0  0  0  0  0  0
   -6.5110   14.7860   -0.4480 O   0  0  0  0  0  0  0  0  0  0  0  0
  2  1  1  0
  2  3  1  0
  2  4  1  0
  5  2  1  6
  5  6  1  0
  5  7  1  0
  8  4  1  1
  6  9  1  0
  7 10  2  0
  8 11  1  0
  8 12  1  0
  6 13  1  0
  6 14  1  6
  9 15  1  1
  9 16  1  0
 10 16  1  0
 12 17  1  0
 11 18  1  0
 17 18  1  0
 14 19  1  0
 13 20  1  0
 19 20  1  0
 16 21  1  1
M  END
