mac-x0345-diamond-x0962_1_A
     RDKit          3D

 10 10  0  0  0  0  0  0  0  0999 V2000
   -7.4100   14.6780    0.8080 C   0  0  0  0  0  0  0  0  0  0  0  0
   -6.3090   14.9240   -0.1870 C   0  0  0  0  0  0  0  0  0  0  0  0
   -6.6530   14.7550   -1.4850 N   0  0  0  0  0  0  0  0  0  0  0  0
   -5.0090   15.3020    0.1640 C   0  0  0  0  0  0  0  0  0  0  0  0
   -4.3480   15.6080    1.8670 Br  0  0  0  0  0  0  0  0  0  0  0  0
   -4.0610   15.4870   -0.7890 C   0  0  0  0  0  0  0  0  0  0  0  0
   -5.6980   14.9540   -2.4040 C   0  0  0  0  0  0  0  0  0  0  0  0
   -6.0800   14.7780   -3.7350 N   0  0  0  0  0  0  0  0  0  0  0  0
   -4.3820   15.3150   -2.0940 C   0  0  0  0  0  0  0  0  0  0  0  0
   -3.3870   15.5080   -3.0570 N   0  0  0  0  0  0  0  0  0  0  0  0
  1  2  1  0
  2  3  2  0
  2  4  1  0
  4  5  1  0
  4  6  2  0
  3  7  1  0
  7  8  1  0
  6  9  1  0
  7  9  2  0
  9 10  1  0
M  END
