mac-x0301-mac-x0576
     RDKit          3D

 18 20  0  0  0  0  0  0  0  0999 V2000
    1.0650   14.1270   -2.9740 O   0  0  0  0  0  0  0  0  0  0  0  0
   -0.1110   14.2180   -3.6160 C   0  0  0  0  0  0  0  0  0  0  0  0
   -0.2320   13.9900   -4.8060 O   0  0  0  0  0  0  0  0  0  0  0  0
   -1.2690   14.5960   -2.7920 C   0  0  0  0  0  0  0  0  0  0  0  0
   -1.3870   14.4400   -1.4200 C   0  0  0  0  0  0  0  0  0  0  0  0
   -2.3520   15.1600   -3.4820 C   0  0  0  0  0  0  0  0  0  0  0  0
   -2.5460   14.8390   -0.7930 C   0  0  0  0  0  0  0  0  0  0  0  0
   -3.5040   15.5530   -2.8150 C   0  0  0  0  0  0  0  0  0  0  0  0
   -0.4540   13.9070   -0.5440 O   0  0  0  0  0  0  0  0  0  0  0  0
   -3.6070   15.3990   -1.4620 C   0  0  0  0  0  0  0  0  0  0  0  0
   -2.4980   14.5700    0.6170 C   0  0  1  0  0  0  0  0  0  0  0  0
   -0.9660   14.2870    0.7730 C   0  0  0  0  0  0  0  0  0  0  0  0
   -3.0680   15.6460    1.3540 N   0  0  0  0  0  0  0  0  0  0  0  0
   -3.4880   13.3980    0.6210 C   0  0  0  0  0  0  0  0  0  0  0  0
   -4.4110   15.5940    1.5730 C   0  0  0  0  0  0  0  0  0  0  0  0
   -4.7270   13.7780   -0.0920 N   0  0  0  0  0  0  0  0  0  0  0  0
   -4.8630   15.9930    2.6230 O   0  0  0  0  0  0  0  0  0  0  0  0
   -5.2940   15.0160    0.4730 C   0  0  0  0  0  0  0  0  0  0  0  0
  1  2  1  0
  2  3  2  0
  2  4  1  0
  4  5  2  0
  4  6  1  0
  5  7  1  0
  6  8  2  0
  5  9  1  0
  7 10  2  0
  8 10  1  0
  7 11  1  0
  9 12  1  0
 11 12  1  1
 11 13  1  0
 11 14  1  0
 13 15  1  0
 14 16  1  0
 15 17  2  0
 15 18  1  0
 16 18  1  0
M  END
