mac-x0302-diamond-x0895_1_A
     RDKit          3D

 15 15  0  0  0  0  0  0  0  0999 V2000
    1.6500   14.2420   -3.7750 O   0  0  0  0  0  0  0  0  0  0  0  0
    0.6230   14.0200   -2.9330 C   0  0  0  0  0  0  0  0  0  0  0  0
    0.7960   13.3980   -1.8990 O   0  0  0  0  0  0  0  0  0  0  0  0
   -0.6840   14.6170   -3.4240 C   0  0  0  0  0  0  0  0  0  0  0  0
   -1.5520   14.8570   -2.2920 N   0  0  0  0  0  0  0  0  0  0  0  0
   -2.9070   14.9890   -2.4470 C   0  0  0  0  0  0  0  0  0  0  0  0
   -3.4170   15.5070   -3.4380 O   0  0  0  0  0  0  0  0  0  0  0  0
   -3.6960   14.4330   -1.2840 C   0  0  2  0  0  0  0  0  0  0  0  0
   -5.2020   14.6430   -1.5300 C   0  0  0  0  0  0  0  0  0  0  0  0
   -3.1750   14.8480    0.0950 C   0  0  0  0  0  0  0  0  0  0  0  0
   -1.9860   15.0750    0.3590 O   0  0  0  0  0  0  0  0  0  0  0  0
   -5.9760   15.3180   -0.4140 C   0  0  1  0  0  0  0  0  0  0  0  0
   -4.1180   14.9380    1.1980 C   0  0  0  0  0  0  0  0  0  0  0  0
   -7.3130   14.8360   -0.3970 O   0  0  0  0  0  0  0  0  0  0  0  0
   -5.4010   15.1410    0.9570 C   0  0  0  0  0  0  0  0  0  0  0  0
  1  2  1  0
  2  3  2  0
  2  4  1  0
  4  5  1  0
  5  6  1  0
  6  7  2  0
  8  6  1  6
  8  9  1  0
  8 10  1  0
 10 11  2  0
  9 12  1  0
 10 13  1  0
 12 14  1  1
 12 15  1  0
 13 15  2  0
M  END
