mac-x0411-diamond-x0742_0_A
     RDKit          3D

 32 35  0  0  0  0  0  0  0  0999 V2000
    0.7180    8.9500   -7.9050 Cl  0  0  0  0  0  0  0  0  0  0  0  0
   -0.5650    9.5320   -6.9010 C   0  0  0  0  0  0  0  0  0  0  0  0
   -0.4570   10.7070   -6.1250 C   0  0  0  0  0  0  0  0  0  0  0  0
   -1.7330    8.7730   -6.8960 C   0  0  0  0  0  0  0  0  0  0  0  0
    0.7280   11.4230   -6.1690 O   0  0  0  0  0  0  0  0  0  0  0  0
   -1.5640   11.1160   -5.3280 C   0  0  0  0  0  0  0  0  0  0  0  0
   -2.8130    9.1680   -6.1230 C   0  0  0  0  0  0  0  0  0  0  0  0
   -1.5920   12.3470   -4.4410 C   0  0  0  0  0  0  0  0  0  0  0  0
    0.9100   12.4880   -5.2320 C   0  0  0  0  0  0  0  0  0  0  0  0
   -2.7270   10.3220   -5.3530 C   0  0  0  0  0  0  0  0  0  0  0  0
    0.9360   11.9480   -3.8110 C   0  0  0  0  0  0  0  0  0  0  0  0
   -1.5130   12.0380   -2.9280 C   0  0  0  0  0  0  0  0  0  0  0  0
    1.5450   12.7830   -2.9450 O   0  0  0  0  0  0  0  0  0  0  0  0
    0.4920   10.8870   -3.4040 O   0  0  0  0  0  0  0  0  0  0  0  0
   -2.6740   12.6080   -2.1260 C   0  0  0  0  0  0  0  0  0  0  0  0
   -4.0240   12.0200   -2.5140 C   0  0  0  0  0  0  0  0  0  0  0  0
   -4.8120   11.8040   -1.3140 N   0  0  0  0  0  0  0  0  0  0  0  0
   -5.2480   12.6820   -0.4640 C   0  0  0  0  0  0  0  0  0  0  0  0
   -6.0690   12.2310    0.7290 C   0  0  0  0  0  0  0  0  0  0  0  0
   -4.9910   14.2370   -0.5900 C   0  0  2  0  0  0  0  0  0  0  0  0
   -5.0540   14.8890    0.8030 C   0  0  0  0  0  0  0  0  0  0  0  0
   -5.9930   14.8090   -1.6000 C   0  0  0  0  0  0  0  0  0  0  0  0
   -3.6850   14.8310   -1.1910 C   0  0  2  0  0  0  0  0  0  0  0  0
   -3.8260   14.7660   -2.7200 C   0  0  0  0  0  0  0  0  0  0  0  0
   -2.4220   14.5910   -0.3940 C   0  0  0  0  0  0  0  0  0  0  0  0
   -3.8640   14.4660    1.6760 C   0  0  0  0  0  0  0  0  0  0  0  0
   -5.3220   14.4970   -2.9410 C   0  0  0  0  0  0  0  0  0  0  0  0
   -1.1340   14.5270   -0.9450 C   0  0  0  0  0  0  0  0  0  0  0  0
   -2.5320   14.4340    0.9910 C   0  0  0  0  0  0  0  0  0  0  0  0
   -1.4880   14.2430    1.8110 N   0  0  0  0  0  0  0  0  0  0  0  0
   -0.0440   14.3200   -0.1040 C   0  0  0  0  0  0  0  0  0  0  0  0
   -0.2810   14.1880    1.2540 C   0  0  0  0  0  0  0  0  0  0  0  0
  1  2  1  0
  2  3  2  0
  2  4  1  0
  3  5  1  0
  3  6  1  0
  4  7  2  0
  6  8  1  0
  5  9  1  0
  6 10  2  0
  7 10  1  0
  9 11  1  0
  8 12  1  0
 11 13  1  0
 11 14  2  0
 12 15  1  0
 15 16  1  0
 16 17  1  0
 17 18  2  3
 18 19  1  0
 20 18  1  1
 20 21  1  0
 20 22  1  0
 20 23  1  0
 23 24  1  6
 23 25  1  0
 21 26  1  0
 22 27  1  0
 24 27  1  0
 25 28  1  0
 25 29  2  0
 26 29  1  0
 29 30  1  0
 28 31  2  0
 30 32  2  0
 31 32  1  0
M  END
