mac-x0358-diamond-x0471_0_A
     RDKit          3D

 29 31  0  0  0  0  0  0  0  0999 V2000
    1.6730   12.9240   -2.2570 O   0  0  0  0  0  0  0  0  0  0  0  0
    0.9550   12.2090   -3.1540 C   0  0  0  0  0  0  0  0  0  0  0  0
    0.4210   11.1700   -2.8030 O   0  0  0  0  0  0  0  0  0  0  0  0
    0.9190   12.8580   -4.5180 C   0  0  0  0  0  0  0  0  0  0  0  0
   -0.4940   13.2340   -4.8680 C   0  0  0  0  0  0  0  0  0  0  0  0
   -1.2810   12.4840   -5.7380 C   0  0  0  0  0  0  0  0  0  0  0  0
   -1.0480   14.3590   -4.2920 C   0  0  0  0  0  0  0  0  0  0  0  0
   -0.7420   11.3650   -6.2870 O   0  0  0  0  0  0  0  0  0  0  0  0
   -2.5940   12.8580   -6.0430 C   0  0  0  0  0  0  0  0  0  0  0  0
   -2.3600   14.7330   -4.5660 C   0  0  0  0  0  0  0  0  0  0  0  0
   -2.8830   15.9180   -3.8490 C   0  0  0  0  0  0  0  0  0  0  0  0
   -3.1370   13.9940   -5.4510 C   0  0  0  0  0  0  0  0  0  0  0  0
   -2.4520   15.7260   -2.3870 C   0  0  0  0  0  0  0  0  0  0  0  0
   -3.5130   15.4650   -1.3360 C   0  0  0  0  0  0  0  0  0  0  0  0
   -4.8800   15.2450   -1.6500 C   0  0  0  0  0  0  0  0  0  0  0  0
   -3.0840   15.4390   -0.0010 C   0  0  0  0  0  0  0  0  0  0  0  0
   -5.7450   14.9950   -0.5710 C   0  0  0  0  0  0  0  0  0  0  0  0
   -3.9660   15.1910    1.0450 C   0  0  0  0  0  0  0  0  0  0  0  0
   -7.1020   14.7380   -0.4840 N   0  0  0  0  0  0  0  0  0  0  0  0
   -5.3140   14.9630    0.7480 C   0  0  0  0  0  0  0  0  0  0  0  0
   -7.4200   14.5640    0.8550 C   0  0  0  0  0  0  0  0  0  0  0  0
   -6.3540   14.6950    1.6020 N   0  0  0  0  0  0  0  0  0  0  0  0
   -8.8020   14.2690    1.3420 C   0  0  0  0  0  0  0  0  0  0  0  0
   -8.7660   14.1050    2.7910 N   0  0  0  0  0  0  0  0  0  0  0  0
   -9.1550   15.1450    3.6180 C   0  0  0  0  0  0  0  0  0  0  0  0
   -9.4310   16.2480    3.1620 O   0  0  0  0  0  0  0  0  0  0  0  0
   -9.2550   14.8310    5.1140 C   0  0  0  0  0  0  0  0  0  0  0  0
   -9.6010   13.3680    5.3780 C   0  0  0  0  0  0  0  0  0  0  0  0
   -7.9850   15.2490    5.8510 C   0  0  0  0  0  0  0  0  0  0  0  0
  1  2  1  0
  2  3  2  0
  2  4  1  0
  4  5  1  0
  5  6  2  0
  5  7  1  0
  6  8  1  0
  6  9  1  0
  7 10  2  0
 10 11  1  0
  9 12  2  0
 10 12  1  0
 11 13  1  0
 13 14  1  0
 14 15  2  0
 14 16  1  0
 15 17  1  0
 16 18  2  0
 17 19  1  0
 17 20  2  0
 18 20  1  0
 19 21  1  0
 20 22  1  0
 21 22  2  0
 21 23  1  0
 23 24  1  0
 24 25  1  0
 25 26  2  0
 25 27  1  0
 27 28  1  0
 27 29  1  0
M  END
