mac-x0190-mac-x0223
     RDKit          3D

 27 29  0  0  0  0  0  0  0  0999 V2000
   -9.0020   15.1240    2.3580 O   0  0  0  0  0  0  0  0  0  0  0  0
   -8.6720   14.1460    1.3760 C   0  0  0  0  0  0  0  0  0  0  0  0
   -7.3480   14.5030    0.7970 C   0  0  0  0  0  0  0  0  0  0  0  0
   -7.1470   14.6590   -0.5510 N   0  0  0  0  0  0  0  0  0  0  0  0
   -6.2200   14.7110    1.4570 N   0  0  0  0  0  0  0  0  0  0  0  0
   -5.8280   14.9790   -0.7620 C   0  0  0  0  0  0  0  0  0  0  0  0
   -5.2660   15.0100    0.5030 C   0  0  0  0  0  0  0  0  0  0  0  0
   -5.1050   15.2350   -1.9310 C   0  0  0  0  0  0  0  0  0  0  0  0
   -3.8950   15.3190    0.6290 C   0  0  0  0  0  0  0  0  0  0  0  0
   -3.7260   15.5390   -1.8270 C   0  0  0  0  0  0  0  0  0  0  0  0
   -3.1360   15.5800   -0.5410 C   0  0  0  0  0  0  0  0  0  0  0  0
   -2.9650   15.7890   -3.1460 C   0  0  0  0  0  0  0  0  0  0  0  0
   -1.5750   16.4830   -3.1990 C   0  0  0  0  0  0  0  0  0  0  0  0
   -1.4030   17.7120   -4.2160 C   0  0  0  0  0  0  0  0  0  0  0  0
   -2.0860   17.3320   -5.3770 O   0  0  0  0  0  0  0  0  0  0  0  0
   -1.5490   16.1530   -5.2600 C   0  0  0  0  0  0  0  0  0  0  0  0
   -0.1580   16.3110   -5.2760 C   0  0  0  0  0  0  0  0  0  0  0  0
   -2.1620   14.9320   -5.1000 C   0  0  0  0  0  0  0  0  0  0  0  0
    0.2990   17.5950   -5.4730 O   0  0  0  0  0  0  0  0  0  0  0  0
   -1.3480   13.8220   -4.9160 C   0  0  0  0  0  0  0  0  0  0  0  0
    0.6420   15.2030   -5.0910 C   0  0  0  0  0  0  0  0  0  0  0  0
    1.1340   18.1290   -4.4750 C   0  0  0  0  0  0  0  0  0  0  0  0
    0.0490   13.9570   -4.9000 C   0  0  0  0  0  0  0  0  0  0  0  0
    0.8990   12.7560   -4.6690 C   0  0  0  0  0  0  0  0  0  0  0  0
    0.6540   12.2260   -3.2760 C   0  0  0  0  0  0  0  0  0  0  0  0
    0.1170   11.1710   -2.9900 O   0  0  0  0  0  0  0  0  0  0  0  0
    1.0790   13.0580   -2.3020 O   0  0  0  0  0  0  0  0  0  0  0  0
  1  2  1  0
  2  3  1  0
  3  4  1  0
  3  5  2  0
  4  6  1  0
  5  7  1  0
  6  7  2  0
  6  8  1  0
  7  9  1  0
  8 10  2  0
  9 11  2  0
 10 11  1  0
 10 12  1  0
 12 13  1  0
 13 14  1  0
 14 15  1  0
 15 16  1  0
 16 17  2  0
 16 18  1  0
 17 19  1  0
 18 20  2  0
 17 21  1  0
 19 22  1  0
 20 23  1  0
 21 23  2  0
 23 24  1  0
 24 25  1  0
 25 26  2  0
 25 27  1  0
M  END
