mac-x0137-mac-x0436
     RDKit          3D

 31 35  0  0  0  0  0  0  0  0999 V2000
   -2.5960   11.9670   -4.0480 N   0  0  0  0  0  0  0  0  0  0  0  0
   -1.8570   12.7540   -3.1210 C   0  0  1  0  0  0  0  0  0  0  0  0
   -0.5790   11.9410   -2.9890 C   0  0  0  0  0  0  0  0  0  0  0  0
   -2.1650   11.5600   -5.1880 C   0  0  0  0  0  0  0  0  0  0  0  0
   -1.6170   14.2340   -3.4610 C   0  0  0  0  0  0  0  0  0  0  0  0
   -0.7690   11.9660   -5.8030 C   0  0  0  0  0  0  0  0  0  0  0  0
   -2.9010   10.7240   -5.9550 N   0  0  0  0  0  0  0  0  0  0  0  0
    0.0770   13.0950   -5.2520 C   0  0  0  0  0  0  0  0  0  0  0  0
   -0.6750   14.7080   -2.4310 N   0  0  0  0  0  0  0  0  0  0  0  0
    0.4590   12.6410   -2.1450 C   0  0  0  0  0  0  0  0  0  0  0  0
   -2.2860    9.9120   -6.8960 C   0  0  0  0  0  0  0  0  0  0  0  0
   -0.2880   11.3330   -6.8410 N   0  0  0  0  0  0  0  0  0  0  0  0
    1.5230   12.6240   -5.0340 C   0  0  0  0  0  0  0  0  0  0  0  0
    0.6310   14.0850   -2.5900 C   0  0  0  0  0  0  0  0  0  0  0  0
   -1.1100   14.7270   -1.1030 C   0  0  0  0  0  0  0  0  0  0  0  0
   -1.0010   10.2350   -7.3520 C   0  0  0  0  0  0  0  0  0  0  0  0
   -2.9370    8.7840   -7.3900 C   0  0  0  0  0  0  0  0  0  0  0  0
    1.8260   12.1600   -3.6220 C   0  0  0  0  0  0  0  0  0  0  0  0
   -0.1740   14.4990   -0.1090 N   0  0  0  0  0  0  0  0  0  0  0  0
   -2.3570   14.9600   -0.6620 C   0  0  0  0  0  0  0  0  0  0  0  0
   -0.3930    9.4320   -8.3240 C   0  0  0  0  0  0  0  0  0  0  0  0
   -2.3190    7.9820   -8.3430 C   0  0  0  0  0  0  0  0  0  0  0  0
    1.3000   10.9460   -3.3270 O   0  0  0  0  0  0  0  0  0  0  0  0
    2.4700   12.7860   -2.7920 O   0  0  0  0  0  0  0  0  0  0  0  0
   -0.4970   14.4590    1.2150 C   0  0  0  0  0  0  0  0  0  0  0  0
   -2.6200   14.9630    0.8020 C   0  0  0  0  0  0  0  0  0  0  0  0
   -3.6430   15.2630   -1.2100 C   0  0  0  0  0  0  0  0  0  0  0  0
   -1.0500    8.3050   -8.8170 C   0  0  0  0  0  0  0  0  0  0  0  0
   -1.6550   14.6700    1.7160 N   0  0  0  0  0  0  0  0  0  0  0  0
   -3.8470   15.2790    1.0830 N   0  0  0  0  0  0  0  0  0  0  0  0
   -4.4440   15.4510   -0.1540 C   0  0  0  0  0  0  0  0  0  0  0  0
  2  1  1  6
  2  3  1  0
  1  4  2  3
  2  5  1  0
  4  6  1  0
  4  7  1  0
  6  8  1  0
  5  9  1  0
  3 10  1  0
  7 11  1  0
  6 12  2  0
  8 13  1  0
  9 14  1  0
 10 14  1  0
  9 15  1  0
 11 16  2  0
 12 16  1  0
 11 17  1  0
 13 18  1  0
 15 19  1  0
 15 20  2  0
 16 21  1  0
 17 22  2  0
 18 23  1  0
 18 24  2  0
 19 25  1  0
 20 26  1  0
 20 27  1  0
 21 28  2  0
 22 28  1  0
 25 29  2  0
 26 29  1  0
 26 30  2  0
 27 31  2  0
 30 31  1  0
M  END
