mac-x0193-mac-x0411
     RDKit          3D

 21 23  0  0  0  0  0  0  0  0999 V2000
    0.3420   11.0230   -3.5900 O   0  0  0  0  0  0  0  0  0  0  0  0
    0.7520   12.2910   -3.7890 C   0  0  0  0  0  0  0  0  0  0  0  0
    1.1720   12.9130   -2.8190 O   0  0  0  0  0  0  0  0  0  0  0  0
    0.6470   12.8710   -5.2170 C   0  0  0  0  0  0  0  0  0  0  0  0
    0.1250   12.0200   -6.2780 N   0  0  0  0  0  0  0  0  0  0  0  0
    1.0410   11.1890   -6.8800 C   0  0  0  0  0  0  0  0  0  0  0  0
   -1.0610   11.3080   -6.2210 C   0  0  0  0  0  0  0  0  0  0  0  0
    2.1900   11.4660   -6.8720 O   0  0  0  0  0  0  0  0  0  0  0  0
    0.3850   10.0350   -7.3920 N   0  0  0  0  0  0  0  0  0  0  0  0
   -2.2470   11.6560   -5.6680 C   0  0  0  0  0  0  0  0  0  0  0  0
   -0.8970   10.0720   -6.8530 C   0  0  0  0  0  0  0  0  0  0  0  0
   -2.4700   13.2080   -4.9510 Cl  0  0  0  0  0  0  0  0  0  0  0  0
    0.5410    9.4590   -8.7350 C   0  0  0  0  0  0  0  0  0  0  0  0
   -3.2920   10.7200   -5.7070 C   0  0  0  0  0  0  0  0  0  0  0  0
   -1.9010    9.1260   -6.9030 C   0  0  0  0  0  0  0  0  0  0  0  0
    1.5590    8.3230   -8.7290 C   0  0  0  0  0  0  0  0  0  0  0  0
    0.6930   10.4480   -9.9090 C   0  0  0  0  0  0  0  0  0  0  0  0
   -3.1170    9.4590   -6.3100 C   0  0  0  0  0  0  0  0  0  0  0  0
    2.1930    8.0810  -10.0890 C   0  0  0  0  0  0  0  0  0  0  0  0
    0.6810    9.7630  -11.2780 C   0  0  0  0  0  0  0  0  0  0  0  0
    1.2220    8.3310  -11.2360 C   0  0  0  0  0  0  0  0  0  0  0  0
  1  2  1  0
  2  3  2  0
  2  4  1  0
  4  5  1  0
  5  6  1  0
  5  7  1  0
  6  8  2  0
  6  9  1  0
  7 10  2  0
  7 11  1  0
  9 11  1  0
 10 12  1  0
  9 13  1  0
 10 14  1  0
 11 15  2  0
 13 16  1  0
 13 17  1  0
 14 18  2  0
 15 18  1  0
 16 19  1  0
 17 20  1  0
 19 21  1  0
 20 21  1  0
M  END
