mac-x0161-mac-x0404
     RDKit          3D

 33 37  0  0  0  0  0  0  0  0999 V2000
   -4.5540   15.5020    1.4060 N   0  0  0  0  0  0  0  0  0  0  0  0
   -3.6930   14.9760    0.3650 C   0  0  2  0  0  0  0  0  0  0  0  0
   -2.2250   15.3040    0.6010 C   0  0  2  0  0  0  0  0  0  0  0  0
   -4.1480   15.5650   -0.8740 N   0  0  0  0  0  0  0  0  0  0  0  0
   -3.3300   15.2690   -2.0560 C   0  0  0  0  0  0  0  0  0  0  0  0
   -1.5170   14.7480   -0.5930 C   0  0  1  0  0  0  0  0  0  0  0  0
   -1.5450   14.6120    1.6860 N   0  0  0  0  0  0  0  0  0  0  0  0
   -1.8730   15.3880   -1.8320 N   0  0  0  0  0  0  0  0  0  0  0  0
   -0.1650   15.0090   -0.1620 N   0  0  0  0  0  0  0  0  0  0  0  0
   -0.1970   14.4250    1.1690 C   0  0  0  0  0  0  0  0  0  0  0  0
   -1.2090   14.6520   -2.9100 C   0  0  0  0  0  0  0  0  0  0  0  0
   -1.4980   13.1320   -2.8720 C   0  0  1  0  0  0  0  0  0  0  0  0
   -1.5350   12.4300   -4.2150 C   0  0  0  0  0  0  0  0  0  0  0  0
   -0.5440   12.3950   -2.0690 O   0  0  0  0  0  0  0  0  0  0  0  0
    0.1670   11.4710   -2.9480 N   0  0  0  0  0  0  0  0  0  0  0  0
   -0.8850   11.1160   -3.8950 C   0  0  2  0  0  0  0  0  0  0  0  0
   -0.4880   10.3530   -5.0190 O   0  0  0  0  0  0  0  0  0  0  0  0
    1.2170   12.3580   -3.4040 C   0  0  0  0  0  0  0  0  0  0  0  0
   -1.5140   10.2470   -6.0020 C   0  0  0  0  0  0  0  0  0  0  0  0
    1.0740   13.4840   -2.5710 O   0  0  0  0  0  0  0  0  0  0  0  0
    2.4560   11.9040   -3.0010 O   0  0  0  0  0  0  0  0  0  0  0  0
    1.3640   12.8010   -4.8750 C   0  0  0  0  0  0  0  0  0  0  0  0
    1.2110   14.2100   -4.9840 O   0  0  0  0  0  0  0  0  0  0  0  0
   -0.0700   14.6500   -5.1780 C   0  0  0  0  0  0  0  0  0  0  0  0
   -0.2400   16.0270   -5.2870 C   0  0  0  0  0  0  0  0  0  0  0  0
   -1.1740   13.7970   -5.2750 C   0  0  0  0  0  0  0  0  0  0  0  0
   -1.5310   16.5590   -5.4930 C   0  0  0  0  0  0  0  0  0  0  0  0
   -2.4560   14.3220   -5.4700 C   0  0  0  0  0  0  0  0  0  0  0  0
    0.8490   16.8800   -5.2060 C   0  0  0  0  0  0  0  0  0  0  0  0
   -2.6360   15.6980   -5.5760 C   0  0  0  0  0  0  0  0  0  0  0  0
   -1.6790   17.9320   -5.6220 C   0  0  0  0  0  0  0  0  0  0  0  0
    0.6970   18.2470   -5.3370 C   0  0  0  0  0  0  0  0  0  0  0  0
   -0.5820   18.7660   -5.5500 C   0  0  0  0  0  0  0  0  0  0  0  0
  2  1  1  1
  2  3  1  0
  2  4  1  0
  4  5  1  0
  3  6  1  0
  3  7  1  1
  5  8  1  0
  6  8  1  0
  6  9  1  1
  7 10  1  0
  9 10  1  0
  8 11  1  0
 12 11  1  6
 12 13  1  0
 12 14  1  0
 14 15  1  0
 13 16  1  0
 15 16  1  0
 16 17  1  6
 15 18  1  0
 17 19  1  0
 18 20  1  0
 18 21  1  0
 18 22  1  0
 22 23  1  0
 23 24  1  0
 24 25  1  0
 24 26  2  0
 25 27  2  0
 26 28  1  0
 25 29  1  0
 27 30  1  0
 28 30  2  0
 27 31  1  0
 29 32  2  0
 31 33  2  0
 32 33  1  0
M  END
