mac-x0132-mac-x0567
     RDKit          3D

 16 18  0  0  0  0  0  0  0  0999 V2000
   -4.6340   14.8540    2.2800 N   0  0  0  0  0  0  0  0  0  0  0  0
   -5.4180   14.7790    1.1640 C   0  0  0  0  0  0  0  0  0  0  0  0
   -6.7310   14.6060    1.3970 N   0  0  0  0  0  0  0  0  0  0  0  0
   -4.8610   14.8860   -0.0780 C   0  0  0  0  0  0  0  0  0  0  0  0
   -5.7920   14.8130   -1.1070 C   0  0  0  0  0  0  0  0  0  0  0  0
   -7.5230   14.5410    0.3340 C   0  0  0  0  0  0  0  0  0  0  0  0
   -3.3690   15.0820   -0.3390 C   0  0  1  0  0  0  0  0  0  0  0  0
   -7.1200   14.6410   -0.9320 N   0  0  0  0  0  0  0  0  0  0  0  0
   -5.3920   14.9250   -2.5010 C   0  0  0  0  0  0  0  0  0  0  0  0
   -3.0730   15.5480   -1.7990 C   0  0  0  0  0  0  0  0  0  0  0  0
   -2.7260   15.9970    0.6700 N   0  0  0  0  0  0  0  0  0  0  0  0
   -2.5230   13.8240   -0.0980 C   0  0  0  0  0  0  0  0  0  0  0  0
   -4.1380   15.2620   -2.8280 C   0  0  0  0  0  0  0  0  0  0  0  0
   -1.1650   14.4330    0.2190 C   0  0  1  0  0  0  0  0  0  0  0  0
   -1.5780   15.3080    1.2600 N   0  0  0  0  0  0  0  0  0  0  0  0
   -0.1860   13.5240    0.7330 N   0  0  0  0  0  0  0  0  0  0  0  0
  1  2  1  0
  2  3  2  0
  2  4  1  0
  4  5  2  0
  3  6  1  0
  4  7  1  0
  5  8  1  0
  6  8  2  0
  5  9  1  0
  7 10  1  6
  7 11  1  0
  7 12  1  0
  9 13  2  0
 10 13  1  0
 12 14  1  0
 11 15  1  0
 14 15  1  0
 14 16  1  1
M  END
