mac-x0392-mac-x0555
     RDKit          3D

 19 21  0  0  0  0  0  0  0  0999 V2000
    0.5010   14.5000   -0.2250 N   0  0  0  0  0  0  0  0  0  0  0  0
   -0.8950   14.5810   -0.1640 C   0  0  0  0  0  0  0  0  0  0  0  0
   -1.5730   14.4860    1.0340 C   0  0  0  0  0  0  0  0  0  0  0  0
   -1.7040   14.7640   -1.3040 C   0  0  0  0  0  0  0  0  0  0  0  0
   -1.0180   14.8620   -2.6150 C   0  0  0  0  0  0  0  0  0  0  0  0
   -3.1260   14.8480   -1.2180 C   0  0  0  0  0  0  0  0  0  0  0  0
   -2.9140   14.5490    1.1550 N   0  0  0  0  0  0  0  0  0  0  0  0
   -1.5520   14.9320   -3.7050 O   0  0  0  0  0  0  0  0  0  0  0  0
    0.3190   14.8610   -2.5040 O   0  0  0  0  0  0  0  0  0  0  0  0
   -3.6840   14.7210    0.0620 C   0  0  0  0  0  0  0  0  0  0  0  0
   -4.0130   15.0420   -2.3100 C   0  0  0  0  0  0  0  0  0  0  0  0
   -5.0740   14.7540    0.2180 C   0  0  0  0  0  0  0  0  0  0  0  0
   -5.3970   15.0840   -2.1240 C   0  0  0  0  0  0  0  0  0  0  0  0
   -5.6600   14.6010    1.4810 C   0  0  0  0  0  0  0  0  0  0  0  0
   -5.9460   14.9330   -0.8700 C   0  0  0  0  0  0  0  0  0  0  0  0
   -7.0310   14.6110    1.6570 C   0  0  0  0  0  0  0  0  0  0  0  0
   -7.2850   14.9540   -0.7350 N   0  0  0  0  0  0  0  0  0  0  0  0
   -7.5620   14.4480    2.9360 N   0  0  0  0  0  0  0  0  0  0  0  0
   -7.7970   14.7910    0.5110 C   0  0  0  0  0  0  0  0  0  0  0  0
  1  2  1  0
  2  3  2  0
  2  4  1  0
  4  5  1  0
  4  6  2  0
  3  7  1  0
  5  8  2  0
  5  9  1  0
  6 10  1  0
  7 10  2  0
  6 11  1  0
 10 12  1  0
 11 13  2  0
 12 14  2  0
 12 15  1  0
 13 15  1  0
 14 16  1  0
 15 17  2  0
 16 18  1  0
 16 19  2  0
 17 19  1  0
M  END
