mac-x0263-diamond-x0926_0_A
     RDKit          3D

 15 16  0  0  0  0  0  0  0  0999 V2000
  -11.5680   14.3360    2.5090 O   0  0  0  0  0  0  0  0  0  0  0  0
  -10.8570   15.4400    2.8090 C   0  0  0  0  0  0  0  0  0  0  0  0
  -11.2330   16.2550    3.6370 O   0  0  0  0  0  0  0  0  0  0  0  0
   -9.5730   15.5970    2.0420 C   0  0  0  0  0  0  0  0  0  0  0  0
   -8.9020   14.2620    1.7570 C   0  0  0  0  0  0  0  0  0  0  0  0
   -7.5700   14.5140    1.1350 C   0  0  0  0  0  0  0  0  0  0  0  0
   -7.5100   14.7670   -0.2250 N   0  0  0  0  0  0  0  0  0  0  0  0
   -6.4510   14.5310    1.7970 N   0  0  0  0  0  0  0  0  0  0  0  0
   -6.2380   14.9630   -0.3920 C   0  0  0  0  0  0  0  0  0  0  0  0
   -5.5190   14.8170    0.8500 C   0  0  0  0  0  0  0  0  0  0  0  0
   -5.5170   15.2880   -1.6210 C   0  0  0  0  0  0  0  0  0  0  0  0
   -4.1990   14.9660    0.8930 C   0  0  0  0  0  0  0  0  0  0  0  0
   -6.1480   15.3910   -2.6320 O   0  0  0  0  0  0  0  0  0  0  0  0
   -4.0480   15.4400   -1.5100 C   0  0  0  0  0  0  0  0  0  0  0  0
   -3.4580   15.2730   -0.3120 C   0  0  0  0  0  0  0  0  0  0  0  0
  1  2  1  0
  2  3  2  0
  2  4  1  0
  4  5  1  0
  5  6  1  0
  6  7  1  0
  6  8  2  0
  7  9  2  0
  8 10  1  0
  9 10  1  0
  9 11  1  0
 10 12  2  0
 11 13  2  0
 11 14  1  0
 12 15  1  0
 14 15  2  0
M  END
