mac-x0137-mac-x0348
     RDKit          3D

 30 34  0  0  0  0  0  0  0  0999 V2000
   -3.1810   12.8680   -4.8030 F   0  0  0  0  0  0  0  0  0  0  0  0
   -2.3120   12.9940   -3.7760 C   0  0  1  0  0  0  0  0  0  0  0  0
   -1.0020   12.2920   -4.1030 C   0  0  0  0  0  0  0  0  0  0  0  0
   -2.1310   14.4740   -3.3560 C   0  0  0  0  0  0  0  0  0  0  0  0
   -1.0460   14.6500   -2.3640 N   0  0  0  0  0  0  0  0  0  0  0  0
   -0.1380   12.5580   -2.8940 C   0  0  2  0  0  0  0  0  0  0  0  0
    0.1890   14.0280   -2.7720 C   0  0  1  0  0  0  0  0  0  0  0  0
   -1.3160   14.6700   -1.0230 C   0  0  0  0  0  0  0  0  0  0  0  0
    0.9650   11.6540   -2.6470 C   0  0  0  0  0  0  0  0  0  0  0  0
   -0.3140   14.4010   -0.1060 N   0  0  0  0  0  0  0  0  0  0  0  0
   -2.5080   14.9530   -0.5190 C   0  0  0  0  0  0  0  0  0  0  0  0
    2.0970   12.0640   -2.5050 O   0  0  0  0  0  0  0  0  0  0  0  0
    0.5600   10.3600   -2.5760 O   0  0  0  0  0  0  0  0  0  0  0  0
    0.9550   14.7740   -3.8780 C   0  0  0  0  0  0  0  0  0  0  0  0
   -0.5550   14.3870    1.2320 C   0  0  0  0  0  0  0  0  0  0  0  0
   -2.6910   14.9670    0.9360 C   0  0  0  0  0  0  0  0  0  0  0  0
   -3.7940   15.3030   -1.0260 C   0  0  0  0  0  0  0  0  0  0  0  0
    0.2390   15.8440   -4.6460 C   0  0  0  0  0  0  0  0  0  0  0  0
   -1.6800   14.6450    1.7950 N   0  0  0  0  0  0  0  0  0  0  0  0
   -3.8940   15.3170    1.2700 N   0  0  0  0  0  0  0  0  0  0  0  0
   -4.5390   15.5100    0.0590 C   0  0  0  0  0  0  0  0  0  0  0  0
    0.7570   17.0190   -5.1120 C   0  0  0  0  0  0  0  0  0  0  0  0
   -1.1300   15.8560   -5.0610 C   0  0  0  0  0  0  0  0  0  0  0  0
   -0.1870   17.7130   -5.7780 N   0  0  0  0  0  0  0  0  0  0  0  0
   -1.3620   17.0380   -5.7580 C   0  0  0  0  0  0  0  0  0  0  0  0
   -2.1920   14.9590   -4.9090 C   0  0  0  0  0  0  0  0  0  0  0  0
    0.0610   18.9730   -6.4050 C   0  0  0  0  0  0  0  0  0  0  0  0
   -3.4380   15.2460   -5.4350 C   0  0  0  0  0  0  0  0  0  0  0  0
   -2.6080   17.3470   -6.2950 C   0  0  0  0  0  0  0  0  0  0  0  0
   -3.6300   16.4130   -6.1100 C   0  0  0  0  0  0  0  0  0  0  0  0
  2  1  1  6
  2  3  1  0
  2  4  1  0
  4  5  1  0
  3  6  1  0
  5  7  1  0
  6  7  1  0
  5  8  1  0
  6  9  1  6
  8 10  1  0
  8 11  2  0
  9 12  2  0
  9 13  1  0
  7 14  1  6
 10 15  1  0
 11 16  1  0
 11 17  1  0
 14 18  1  0
 15 19  2  0
 16 19  1  0
 16 20  2  0
 17 21  2  0
 20 21  1  0
 18 22  2  0
 18 23  1  0
 22 24  1  0
 23 25  2  0
 24 25  1  0
 23 26  1  0
 24 27  1  0
 26 28  2  0
 25 29  1  0
 28 30  1  0
 29 30  2  0
M  END
