mac-x0567-mac-x0224
     RDKit          3D

 16 17  0  0  0  0  0  0  0  0999 V2000
    0.0060   13.6100    1.5920 N   0  0  0  0  0  0  0  0  0  0  0  0
   -1.1660   14.0840    1.1650 C   0  0  0  0  0  0  0  0  0  0  0  0
   -2.1690   14.3360    2.0200 N   0  0  0  0  0  0  0  0  0  0  0  0
   -1.6950   14.4090   -0.0310 C   0  0  0  0  0  0  0  0  0  0  0  0
   -3.2840   14.7940    1.5000 N   0  0  0  0  0  0  0  0  0  0  0  0
   -3.0300   14.8470    0.2060 C   0  0  0  0  0  0  0  0  0  0  0  0
   -1.0970   14.3390   -1.2490 C   0  0  0  0  0  0  0  0  0  0  0  0
    0.1650   13.9200   -1.4840 O   0  0  0  0  0  0  0  0  0  0  0  0
   -3.8380   15.2370   -0.8450 C   0  0  0  0  0  0  0  0  0  0  0  0
   -1.8760   14.7310   -2.2880 C   0  0  0  0  0  0  0  0  0  0  0  0
   -5.4430   15.7320   -0.4940 S   0  0  0  0  0  0  0  0  0  0  0  0
   -0.9700   14.5660   -3.4550 C   0  0  0  0  0  0  0  0  0  0  0  0
   -3.2480   15.1820   -2.1430 C   0  0  0  0  0  0  0  0  0  0  0  0
   -5.6600   14.8740    1.0980 C   0  0  0  0  0  0  0  0  0  0  0  0
    0.2050   14.2700   -3.2420 O   0  0  0  0  0  0  0  0  0  0  0  0
   -1.4480   14.7380   -4.6790 O   0  0  0  0  0  0  0  0  0  0  0  0
  1  2  1  0
  2  3  1  0
  2  4  2  0
  3  5  1  0
  4  6  1  0
  5  6  2  0
  4  7  1  0
  7  8  1  0
  6  9  1  0
  7 10  2  0
  9 11  1  0
 10 12  1  0
  9 13  2  0
 10 13  1  0
 11 14  1  0
 12 15  2  0
 12 16  1  0
M  END
