mac-x0231-diamond-x0587_0_A
     RDKit          3D

 30 32  0  0  0  0  0  0  0  0999 V2000
    0.8820   10.6590   -3.1830 O   0  0  0  0  0  0  0  0  0  0  0  0
    1.4220   11.8920   -3.1670 C   0  0  0  0  0  0  0  0  0  0  0  0
    1.5350   12.5060   -2.1200 O   0  0  0  0  0  0  0  0  0  0  0  0
    1.8460   12.4390   -4.5040 C   0  0  0  0  0  0  0  0  0  0  0  0
    1.3530   13.8550   -4.5490 C   0  0  0  0  0  0  0  0  0  0  0  0
   -0.0830   14.0700   -4.6010 C   0  0  0  0  0  0  0  0  0  0  0  0
    2.1990   14.8170   -4.4470 N   0  0  0  0  0  0  0  0  0  0  0  0
   -0.5340   15.3800   -4.5930 C   0  0  0  0  0  0  0  0  0  0  0  0
    1.7340   16.0920   -4.4260 N   0  0  0  0  0  0  0  0  0  0  0  0
   -0.9680   13.0010   -4.6260 C   0  0  0  0  0  0  0  0  0  0  0  0
    0.4360   16.4770   -4.5880 C   0  0  0  0  0  0  0  0  0  0  0  0
   -1.8910   15.6320   -4.5670 C   0  0  0  0  0  0  0  0  0  0  0  0
   -2.3210   13.2490   -4.6000 C   0  0  0  0  0  0  0  0  0  0  0  0
    0.1050   17.6560   -4.7160 O   0  0  0  0  0  0  0  0  0  0  0  0
   -2.7740   14.5570   -4.5500 C   0  0  0  0  0  0  0  0  0  0  0  0
   -4.2130   14.8090   -4.4330 C   0  0  0  0  0  0  0  0  0  0  0  0
   -4.3240   15.5050   -3.0530 C   0  0  0  0  0  0  0  0  0  0  0  0
   -3.8290   14.7520   -1.9620 O   0  0  0  0  0  0  0  0  0  0  0  0
   -4.8800   13.8780   -1.6470 C   0  0  0  0  0  0  0  0  0  0  0  0
   -4.3870   12.6120   -1.6700 F   0  0  0  0  0  0  0  0  0  0  0  0
   -5.6570   13.9740   -2.7540 F   0  0  0  0  0  0  0  0  0  0  0  0
   -5.7010   14.2280   -0.4010 C   0  0  0  0  0  0  0  0  0  0  0  0
   -7.0390   14.0450   -0.5350 N   0  0  0  0  0  0  0  0  0  0  0  0
   -5.1110   14.6730    0.7280 N   0  0  0  0  0  0  0  0  0  0  0  0
   -7.8170   14.3160    0.5240 C   0  0  0  0  0  0  0  0  0  0  0  0
   -5.9490   14.9270    1.7600 C   0  0  0  0  0  0  0  0  0  0  0  0
   -7.3170   14.7590    1.7120 C   0  0  0  0  0  0  0  0  0  0  0  0
   -8.1450   15.0550    2.8860 C   0  0  0  0  0  0  0  0  0  0  0  0
   -7.4860   15.0350    4.0760 N   0  0  0  0  0  0  0  0  0  0  0  0
   -9.3430   15.3060    2.7880 O   0  0  0  0  0  0  0  0  0  0  0  0
  1  2  1  0
  2  3  2  0
  2  4  1  0
  4  5  1  0
  5  6  1  0
  5  7  2  0
  6  8  2  0
  7  9  1  0
  6 10  1  0
  8 11  1  0
  9 11  1  0
  8 12  1  0
 10 13  2  0
 11 14  2  0
 12 15  2  0
 13 15  1  0
 15 16  1  0
 16 17  1  0
 17 18  1  0
 18 19  1  0
 19 20  1  0
 19 21  1  0
 19 22  1  0
 22 23  2  0
 22 24  1  0
 23 25  1  0
 24 26  2  0
 25 27  2  0
 26 27  1  0
 27 28  1  0
 28 29  1  0
 28 30  2  0
M  END
