mac-x0321-mac-x0588
     RDKit          3D

 19 21  0  0  0  0  0  0  0  0999 V2000
   -4.9230   14.9030    1.4120 Cl  0  0  0  0  0  0  0  0  0  0  0  0
   -4.1040   15.7040    0.0700 C   0  0  1  0  0  0  0  0  0  0  0  0
   -2.7420   14.9990   -0.3420 C   0  0  2  0  0  0  0  0  0  0  0  0
   -5.2140   15.7860   -0.9780 C   0  0  0  0  0  0  0  0  0  0  0  0
   -2.8910   14.8240   -1.8640 C   0  0  1  0  0  0  0  0  0  0  0  0
   -5.2390   15.0570   -2.1010 C   0  0  0  0  0  0  0  0  0  0  0  0
   -2.3130   13.8160    0.4700 N   0  0  0  0  0  0  0  0  0  0  0  0
   -1.5060   15.8840   -0.1050 C   0  0  0  0  0  0  0  0  0  0  0  0
   -1.6470   14.9340   -2.6640 C   0  0  0  0  0  0  0  0  0  0  0  0
   -4.1210   14.1120   -2.3950 C   0  0  0  0  0  0  0  0  0  0  0  0
   -0.4030   14.9510   -0.0320 N   0  0  0  0  0  0  0  0  0  0  0  0
   -0.9470   14.0720    0.9470 C   0  0  0  0  0  0  0  0  0  0  0  0
   -0.7930   13.9190   -2.7800 O   0  0  0  0  0  0  0  0  0  0  0  0
   -1.5770   16.1010   -3.0960 N   0  0  0  0  0  0  0  0  0  0  0  0
   -0.6560   16.8930   -3.8380 C   0  0  2  0  0  0  0  0  0  0  0  0
   -1.3570   17.9310   -4.5500 O   0  0  0  0  0  0  0  0  0  0  0  0
    0.2440   16.2010   -4.8350 C   0  0  0  0  0  0  0  0  0  0  0  0
    0.7160   17.4490   -5.5340 C   0  0  0  0  0  0  0  0  0  0  0  0
   -0.6010   18.1680   -5.7370 C   0  0  0  0  0  0  0  0  0  0  0  0
  2  1  1  1
  2  3  1  0
  2  4  1  0
  3  5  1  0
  4  6  2  0
  3  7  1  0
  3  8  1  6
  5  9  1  1
  5 10  1  0
  6 10  1  0
  8 11  1  0
  7 12  1  0
 11 12  1  0
  9 13  1  0
  9 14  2  3
 15 14  1  6
 15 16  1  0
 15 17  1  0
 17 18  1  0
 16 19  1  0
 18 19  1  0
M  END
