mac-x0381-diamond-x0837_0_A
     RDKit          3D

 23 25  0  0  0  0  0  0  0  0999 V2000
   -8.2910   13.4860    4.6670 N   0  0  0  0  0  0  0  0  0  0  0  0
   -8.1590   14.6850    3.8650 C   0  0  0  0  0  0  0  0  0  0  0  0
   -7.4400   15.5540    4.7680 N   0  0  0  0  0  0  0  0  0  0  0  0
   -7.3400   14.3400    2.6120 C   0  0  0  0  0  0  0  0  0  0  0  0
   -9.5180   15.2280    3.4430 C   0  0  0  0  0  0  0  0  0  0  0  0
   -8.1900   14.0360    1.3770 C   0  0  0  0  0  0  0  0  0  0  0  0
   -9.6710   15.9080    2.2200 C   0  0  0  0  0  0  0  0  0  0  0  0
  -10.6580   15.0640    4.2440 C   0  0  0  0  0  0  0  0  0  0  0  0
   -7.4710   14.3900    0.1490 N   0  0  0  0  0  0  0  0  0  0  0  0
  -10.9040   16.4040    1.7900 C   0  0  0  0  0  0  0  0  0  0  0  0
  -11.9000   15.5570    3.8340 C   0  0  0  0  0  0  0  0  0  0  0  0
  -12.0380   16.2250    2.6080 C   0  0  0  0  0  0  0  0  0  0  0  0
  -11.0330   17.0690    0.5610 C   0  0  0  0  0  0  0  0  0  0  0  0
   -6.2230   14.7440    0.1300 C   0  0  0  0  0  0  0  0  0  0  0  0
  -13.2770   16.7160    2.1780 C   0  0  0  0  0  0  0  0  0  0  0  0
  -12.2720   17.5460    0.1430 C   0  0  0  0  0  0  0  0  0  0  0  0
   -5.4420   14.8350    1.2750 N   0  0  0  0  0  0  0  0  0  0  0  0
   -5.4770   15.0780   -1.1480 C   0  0  0  0  0  0  0  0  0  0  0  0
  -13.3960   17.3690    0.9530 C   0  0  0  0  0  0  0  0  0  0  0  0
   -4.1260   15.1850    1.2670 C   0  0  0  0  0  0  0  0  0  0  0  0
   -4.0800   14.4800   -1.0350 C   0  0  1  0  0  0  0  0  0  0  0  0
   -2.9080   14.7640   -2.8440 I   0  0  0  0  0  0  0  0  0  0  0  0
   -3.3840   15.0340    0.1690 C   0  0  0  0  0  0  0  0  0  0  0  0
  2  1  1  0
  2  3  1  0
  2  4  1  0
  2  5  1  0
  4  6  1  0
  5  7  2  0
  5  8  1  0
  6  9  1  0
  7 10  1  0
  8 11  2  0
 10 12  2  0
 11 12  1  0
 10 13  1  0
  9 14  2  3
 12 15  1  0
 13 16  2  0
 14 17  1  0
 14 18  1  0
 15 19  2  0
 16 19  1  0
 17 20  1  0
 18 21  1  0
 21 22  1  6
 20 23  2  0
 21 23  1  0
M  END
