mac-x0338-mac-x1493
     RDKit          3D

 16 17  0  0  0  0  0  0  0  0999 V2000
   -3.4300   16.3340    1.2110 N   0  0  0  0  0  0  0  0  0  0  0  0
   -4.5120   15.5630    1.3310 C   0  0  0  0  0  0  0  0  0  0  0  0
   -5.2690   15.6470    2.2840 O   0  0  0  0  0  0  0  0  0  0  0  0
   -4.7240   14.5280    0.2520 C   0  0  2  0  0  0  0  0  0  0  0  0
   -3.4550   14.2780   -0.4670 N   0  0  0  0  0  0  0  0  0  0  0  0
   -5.8920   14.8810   -0.7070 C   0  0  0  0  0  0  0  0  0  0  0  0
   -5.1160   13.4520    1.1990 C   0  0  0  0  0  0  0  0  0  0  0  0
   -3.3810   14.7010   -1.7980 C   0  0  0  0  0  0  0  0  0  0  0  0
   -5.7540   15.1310   -1.9880 N   0  0  0  0  0  0  0  0  0  0  0  0
   -7.2310   14.9410   -0.0520 C   0  0  0  0  0  0  0  0  0  0  0  0
   -6.3930   13.3280    1.5810 C   0  0  0  0  0  0  0  0  0  0  0  0
   -2.0710   14.7350   -2.5050 C   0  0  0  0  0  0  0  0  0  0  0  0
   -4.4660   15.0890   -2.4880 C   0  0  0  0  0  0  0  0  0  0  0  0
   -7.4220   14.1950    1.0520 C   0  0  0  0  0  0  0  0  0  0  0  0
   -1.0000   14.5840   -1.7040 O   0  0  0  0  0  0  0  0  0  0  0  0
   -2.0010   14.8940   -3.7130 O   0  0  0  0  0  0  0  0  0  0  0  0
  1  2  1  0
  2  3  2  0
  4  2  1  1
  4  5  1  0
  4  6  1  0
  4  7  1  0
  5  8  1  0
  6  9  2  0
  6 10  1  0
  7 11  2  0
  8 12  1  0
  8 13  2  0
  9 13  1  0
 10 14  2  0
 11 14  1  0
 12 15  1  0
 12 16  2  0
M  END
