mac-x0496-mac-x0527
     RDKit          3D

 26 28  0  0  0  0  0  0  0  0999 V2000
   -9.9470   17.7840    4.7560 C   0  0  0  0  0  0  0  0  0  0  0  0
   -9.9490   16.7680    3.6870 C   0  0  0  0  0  0  0  0  0  0  0  0
  -10.9420   16.6330    2.8010 N   0  0  0  0  0  0  0  0  0  0  0  0
   -8.9260   15.8780    3.5310 N   0  0  0  0  0  0  0  0  0  0  0  0
  -10.5190   15.5740    1.9910 O   0  0  0  0  0  0  0  0  0  0  0  0
   -9.3120   15.1720    2.4930 C   0  0  0  0  0  0  0  0  0  0  0  0
   -8.6320   14.0310    1.8190 C   0  0  0  0  0  0  0  0  0  0  0  0
   -7.2140   14.2990    1.6470 N   0  0  0  0  0  0  0  0  0  0  0  0
   -6.7390   14.6250    0.3890 C   0  0  0  0  0  0  0  0  0  0  0  0
   -7.4750   14.8260   -0.5690 O   0  0  0  0  0  0  0  0  0  0  0  0
   -5.2690   14.7260    0.2180 C   0  0  0  0  0  0  0  0  0  0  0  0
   -4.4770   14.7600    1.3640 C   0  0  0  0  0  0  0  0  0  0  0  0
   -4.6700   14.7830   -1.0420 C   0  0  0  0  0  0  0  0  0  0  0  0
   -3.0930   14.8410    1.2700 C   0  0  0  0  0  0  0  0  0  0  0  0
   -3.2810   14.8660   -1.1290 C   0  0  0  0  0  0  0  0  0  0  0  0
   -2.6250   14.9250   -2.4350 C   0  0  0  0  0  0  0  0  0  0  0  0
   -2.4910   14.8920    0.0220 C   0  0  0  0  0  0  0  0  0  0  0  0
   -1.4130   14.7000   -2.7720 N   0  0  0  0  0  0  0  0  0  0  0  0
   -3.4890   15.2820   -3.3940 O   0  0  0  0  0  0  0  0  0  0  0  0
   -1.0270   14.8300   -4.1820 C   0  0  0  0  0  0  0  0  0  0  0  0
   -0.9260   13.5020   -4.8970 C   0  0  0  0  0  0  0  0  0  0  0  0
   -2.0470   12.6870   -5.0560 C   0  0  0  0  0  0  0  0  0  0  0  0
    0.2960   13.0560   -5.4130 C   0  0  0  0  0  0  0  0  0  0  0  0
   -1.9610   11.4510   -5.6960 C   0  0  0  0  0  0  0  0  0  0  0  0
    0.3840   11.8240   -6.0590 C   0  0  0  0  0  0  0  0  0  0  0  0
   -0.7440   11.0170   -6.1980 C   0  0  0  0  0  0  0  0  0  0  0  0
  1  2  1  0
  2  3  2  0
  2  4  1  0
  3  5  1  0
  4  6  2  0
  5  6  1  0
  6  7  1  0
  7  8  1  0
  8  9  1  0
  9 10  2  0
  9 11  1  0
 11 12  2  0
 11 13  1  0
 12 14  1  0
 13 15  2  0
 15 16  1  0
 14 17  2  0
 15 17  1  0
 16 18  2  3
 16 19  1  0
 18 20  1  0
 20 21  1  0
 21 22  2  0
 21 23  1  0
 22 24  1  0
 23 25  2  0
 24 26  2  0
 25 26  1  0
M  END
