mac-x0116-diamond-x0574_0_A
     RDKit          3D

 18 20  0  0  0  0  0  0  0  0999 V2000
   -6.2510   14.6260    1.7370 C   0  0  2  0  0  0  0  0  0  0  0  0
   -4.8590   15.0860    1.6800 N   0  0  0  0  0  0  0  0  0  0  0  0
   -4.0430   15.0110    0.5530 C   0  0  0  0  0  0  0  0  0  0  0  0
   -6.9170   15.0490    3.0440 C   0  0  0  0  0  0  0  0  0  0  0  0
   -6.5140   13.1740    1.6490 C   0  0  0  0  0  0  0  0  0  0  0  0
   -6.3860   12.5690    0.4320 O   0  0  0  0  0  0  0  0  0  0  0  0
   -6.9010   12.2630    2.6010 C   0  0  0  0  0  0  0  0  0  0  0  0
   -7.0330   11.0420    1.9390 C   0  0  0  0  0  0  0  0  0  0  0  0
   -6.7070   11.2690    0.6230 C   0  0  0  0  0  0  0  0  0  0  0  0
   -4.4840   15.2110   -0.7430 N   0  0  0  0  0  0  0  0  0  0  0  0
   -2.7520   14.7270    0.6680 C   0  0  0  0  0  0  0  0  0  0  0  0
   -3.6420   15.1010   -1.8190 C   0  0  0  0  0  0  0  0  0  0  0  0
   -1.8980   14.6200   -0.5130 C   0  0  0  0  0  0  0  0  0  0  0  0
   -1.9920   14.4840    1.7520 N   0  0  0  0  0  0  0  0  0  0  0  0
   -2.3750   14.8150   -1.7800 N   0  0  0  0  0  0  0  0  0  0  0  0
   -0.6920   14.3130   -0.1350 N   0  0  0  0  0  0  0  0  0  0  0  0
   -0.8430   14.2460    1.2470 C   0  0  0  0  0  0  0  0  0  0  0  0
    0.1450   13.9430    2.0760 N   0  0  0  0  0  0  0  0  0  0  0  0
  1  2  1  0
  2  3  1  0
  1  4  1  1
  1  5  1  0
  5  6  1  0
  5  7  2  0
  7  8  1  0
  6  9  1  0
  8  9  2  0
  3 10  1  0
  3 11  2  0
 10 12  1  0
 11 13  1  0
 11 14  1  0
 12 15  2  0
 13 15  1  0
 13 16  2  0
 14 17  2  0
 16 17  1  0
 17 18  1  0
M  END
