mac-x0347-diamond-x0950_1_A
     RDKit          3D

 19 21  0  0  0  0  0  0  0  0999 V2000
    0.9030   13.7350   -3.5950 O   0  0  0  0  0  0  0  0  0  0  0  0
   -0.2340   13.4460   -2.9360 C   0  0  0  0  0  0  0  0  0  0  0  0
   -0.3870   12.3340   -2.3760 N   0  0  0  0  0  0  0  0  0  0  0  0
    1.4450   12.4160   -3.7910 C   0  0  2  0  0  0  0  0  0  0  0  0
    1.2160   11.9910   -5.1220 O   0  0  0  0  0  0  0  0  0  0  0  0
    0.6610   11.6260   -2.7080 C   0  0  0  0  0  0  0  0  0  0  0  0
   -1.3840   14.2620   -2.9070 C   0  0  0  0  0  0  0  0  0  0  0  0
    0.8410   10.5190   -2.2470 O   0  0  0  0  0  0  0  0  0  0  0  0
   -2.1410   14.1840   -1.7540 C   0  0  0  0  0  0  0  0  0  0  0  0
   -1.7870   15.0480   -3.9600 C   0  0  0  0  0  0  0  0  0  0  0  0
   -3.3170   14.8790   -1.6740 C   0  0  0  0  0  0  0  0  0  0  0  0
   -2.9270   15.7490   -3.9240 N   0  0  0  0  0  0  0  0  0  0  0  0
   -3.6550   15.6270   -2.7800 C   0  0  0  0  0  0  0  0  0  0  0  0
   -4.1670   14.8160   -0.4960 C   0  0  0  0  0  0  0  0  0  0  0  0
   -3.7970   15.4120    0.7140 C   0  0  0  0  0  0  0  0  0  0  0  0
   -5.3920   14.1400   -0.5650 C   0  0  0  0  0  0  0  0  0  0  0  0
   -4.6310   15.3340    1.8190 C   0  0  0  0  0  0  0  0  0  0  0  0
   -6.2290   14.0570    0.5430 C   0  0  0  0  0  0  0  0  0  0  0  0
   -5.8460   14.6560    1.7350 C   0  0  0  0  0  0  0  0  0  0  0  0
  1  2  1  0
  2  3  2  0
  1  4  1  0
  4  5  1  6
  3  6  1  0
  4  6  1  0
  2  7  1  0
  6  8  2  0
  7  9  2  0
  7 10  1  0
  9 11  1  0
 10 12  2  0
 11 13  2  0
 12 13  1  0
 11 14  1  0
 14 15  2  0
 14 16  1  0
 15 17  1  0
 16 18  2  0
 17 19  2  0
 18 19  1  0
M  END
