mac-x0346-mac-x0231
     RDKit          3D

 27 29  0  0  0  0  0  0  0  0999 V2000
   -7.6350   13.9830    1.1100 O   0  0  0  0  0  0  0  0  0  0  0  0
   -7.7430   15.0220    0.1590 N   0  0  0  0  0  0  0  0  0  0  0  0
   -6.8090   15.0390   -0.8530 C   0  0  0  0  0  0  0  0  0  0  0  0
   -7.1570   15.0370   -2.0250 O   0  0  0  0  0  0  0  0  0  0  0  0
   -5.3600   15.0340   -0.5090 C   0  0  0  0  0  0  0  0  0  0  0  0
   -4.3780   15.2360   -1.4990 C   0  0  0  0  0  0  0  0  0  0  0  0
   -4.9830   14.8190    0.8310 C   0  0  0  0  0  0  0  0  0  0  0  0
   -4.7940   15.4900   -2.8200 O   0  0  0  0  0  0  0  0  0  0  0  0
   -3.0320   15.1940   -1.1180 C   0  0  0  0  0  0  0  0  0  0  0  0
   -3.6390   14.7940    1.1970 C   0  0  0  0  0  0  0  0  0  0  0  0
   -4.4470   14.6820   -3.9880 C   0  0  0  0  0  0  0  0  0  0  0  0
   -2.6650   14.9760    0.2210 C   0  0  0  0  0  0  0  0  0  0  0  0
   -2.9680   14.5400   -4.1910 C   0  0  0  0  0  0  0  0  0  0  0  0
   -2.0940   15.6450   -4.3200 C   0  0  0  0  0  0  0  0  0  0  0  0
   -2.4550   13.2510   -4.2320 C   0  0  0  0  0  0  0  0  0  0  0  0
   -0.7120   15.4160   -4.4480 C   0  0  0  0  0  0  0  0  0  0  0  0
   -1.1010   13.0340   -4.3610 C   0  0  0  0  0  0  0  0  0  0  0  0
   -0.2290   14.1140   -4.4510 C   0  0  0  0  0  0  0  0  0  0  0  0
    0.2580   16.5280   -4.5650 C   0  0  0  0  0  0  0  0  0  0  0  0
   -0.0990   17.6920   -4.7160 O   0  0  0  0  0  0  0  0  0  0  0  0
    1.2180   13.9140   -4.5220 C   0  0  0  0  0  0  0  0  0  0  0  0
    1.5790   16.1620   -4.4950 N   0  0  0  0  0  0  0  0  0  0  0  0
    1.7350   12.5000   -4.5030 C   0  0  0  0  0  0  0  0  0  0  0  0
    2.0600   14.8900   -4.5240 N   0  0  0  0  0  0  0  0  0  0  0  0
    1.3540   11.9200   -3.1720 C   0  0  0  0  0  0  0  0  0  0  0  0
    0.9320   10.6450   -3.2140 O   0  0  0  0  0  0  0  0  0  0  0  0
    1.3970   12.4980   -2.1000 O   0  0  0  0  0  0  0  0  0  0  0  0
  1  2  1  0
  2  3  1  0
  3  4  2  0
  3  5  1  0
  5  6  2  0
  5  7  1  0
  6  8  1  0
  6  9  1  0
  7 10  2  0
  8 11  1  0
  9 12  2  0
 10 12  1  0
 11 13  1  0
 13 14  2  0
 13 15  1  0
 14 16  1  0
 15 17  2  0
 16 18  2  0
 17 18  1  0
 16 19  1  0
 19 20  2  0
 18 21  1  0
 19 22  1  0
 21 23  1  0
 21 24  2  0
 22 24  1  0
 23 25  1  0
 25 26  1  0
 25 27  2  0
M  END
