mac-x0417-mac-x0277
     RDKit          3D

 21 23  0  0  0  0  0  0  0  0999 V2000
    1.7070   12.8410   -2.5060 O   0  0  0  0  0  0  0  0  0  0  0  0
    0.9030   11.9780   -3.1650 C   0  0  0  0  0  0  0  0  0  0  0  0
    0.7890   10.8280   -2.7820 O   0  0  0  0  0  0  0  0  0  0  0  0
    0.1560   12.5350   -4.3500 C   0  0  2  0  0  0  0  0  0  0  0  0
    0.2500   11.7290   -5.6210 C   0  0  0  0  0  0  0  0  0  0  0  0
    0.0760   14.0470   -4.5590 C   0  0  0  0  0  0  0  0  0  0  0  0
    1.2400   11.7990   -6.5270 N   0  0  0  0  0  0  0  0  0  0  0  0
   -0.7200   10.7670   -6.0080 C   0  0  0  0  0  0  0  0  0  0  0  0
   -1.1930   14.4460   -4.9170 C   0  0  0  0  0  0  0  0  0  0  0  0
    1.0830   15.0400   -4.4220 C   0  0  0  0  0  0  0  0  0  0  0  0
    0.9140   10.8720   -7.5160 O   0  0  0  0  0  0  0  0  0  0  0  0
   -0.2550   10.2570   -7.2020 C   0  0  0  0  0  0  0  0  0  0  0  0
   -1.9270   10.2740   -5.4840 C   0  0  0  0  0  0  0  0  0  0  0  0
   -1.5100   15.7640   -5.1410 C   0  0  0  0  0  0  0  0  0  0  0  0
    0.7550   16.3970   -4.6510 C   0  0  0  0  0  0  0  0  0  0  0  0
   -3.1400   16.0550   -5.5830 Cl  0  0  0  0  0  0  0  0  0  0  0  0
   -0.9100    9.2690   -7.9360 C   0  0  0  0  0  0  0  0  0  0  0  0
   -2.6130    9.2820   -6.1930 C   0  0  0  0  0  0  0  0  0  0  0  0
   -0.5510   16.7530   -5.0110 C   0  0  0  0  0  0  0  0  0  0  0  0
   -0.9440   18.4070   -5.2880 Cl  0  0  0  0  0  0  0  0  0  0  0  0
   -2.1110    8.7870   -7.3990 C   0  0  0  0  0  0  0  0  0  0  0  0
  1  2  1  0
  2  3  2  0
  4  2  1  1
  4  5  1  0
  4  6  1  0
  5  7  2  0
  5  8  1  0
  6  9  2  0
  6 10  1  0
  7 11  1  0
  8 12  2  0
 11 12  1  0
  8 13  1  0
  9 14  1  0
 10 15  2  0
 14 16  1  0
 12 17  1  0
 13 18  2  0
 14 19  2  0
 15 19  1  0
 19 20  1  0
 17 21  2  0
 18 21  1  0
M  END
