mac-x0206-diamond-x0681_0_A
     RDKit          3D

 20 22  0  0  0  0  0  0  0  0999 V2000
   -4.2110   16.2230   -1.2990 N   0  0  0  0  0  0  0  0  0  0  0  0
   -4.3250   14.6110   -1.6520 S   0  0  0  0  0  0  0  0  0  0  0  0
   -5.0050   14.3130   -3.1730 O   0  0  0  0  0  0  0  0  0  0  0  0
   -3.1390   14.9810   -2.3790 O   0  0  0  0  0  0  0  0  0  0  0  0
   -5.6920   14.7100   -0.7520 C   0  0  0  0  0  0  0  0  0  0  0  0
   -3.6650   13.5330   -0.8150 C   0  0  2  0  0  0  0  0  0  0  0  0
   -6.9930   14.8120   -1.2200 C   0  0  0  0  0  0  0  0  0  0  0  0
   -5.6390   14.6910    0.6520 C   0  0  0  0  0  0  0  0  0  0  0  0
   -4.8160   12.6540   -0.4380 C   0  0  0  0  0  0  0  0  0  0  0  0
   -2.8730   13.9690    0.3930 C   0  0  0  0  0  0  0  0  0  0  0  0
   -7.2070   14.8470   -2.6050 O   0  0  0  0  0  0  0  0  0  0  0  0
   -8.1000   14.8730   -0.4050 C   0  0  0  0  0  0  0  0  0  0  0  0
   -6.7070   14.7440    1.5190 C   0  0  0  0  0  0  0  0  0  0  0  0
   -5.2520   12.5070    0.8090 N   0  0  0  0  0  0  0  0  0  0  0  0
   -3.5980   14.1370    1.6800 C   0  0  0  0  0  0  0  0  0  0  0  0
   -5.6120   11.9030   -1.2030 N   0  0  0  0  0  0  0  0  0  0  0  0
   -7.9120   14.8330    0.9360 C   0  0  0  0  0  0  0  0  0  0  0  0
   -4.6680   13.1340    1.9590 C   0  0  0  0  0  0  0  0  0  0  0  0
   -6.3280   11.6750    0.8030 C   0  0  0  0  0  0  0  0  0  0  0  0
   -6.5510   11.2910   -0.4810 C   0  0  0  0  0  0  0  0  0  0  0  0
  1  2  1  0
  2  3  2  0
  2  4  1  0
  2  5  1  0
  6  2  1  1
  5  7  2  0
  5  8  1  0
  6  9  1  0
  6 10  1  0
  7 11  1  0
  7 12  1  0
  8 13  2  0
  9 14  1  0
 10 15  1  0
  9 16  2  0
 12 17  2  0
 13 17  1  0
 14 18  1  0
 15 18  1  0
 14 19  1  0
 16 20  1  0
 19 20  2  0
M  END
