mac-x0527-mac-x0348
     RDKit          3D

 30 33  0  0  0  0  0  0  0  0999 V2000
   -3.4610   15.2730   -3.4870 O   0  0  0  0  0  0  0  0  0  0  0  0
   -2.9000   14.8780   -2.4750 C   0  0  0  0  0  0  0  0  0  0  0  0
   -1.6200   14.3170   -2.4060 N   0  0  0  0  0  0  0  0  0  0  0  0
   -3.6230   14.9720   -1.1860 C   0  0  0  0  0  0  0  0  0  0  0  0
   -0.5220   14.2600   -3.4230 C   0  0  1  0  0  0  0  0  0  0  0  0
   -5.0100   15.0430   -1.2010 C   0  0  0  0  0  0  0  0  0  0  0  0
   -2.8920   14.9790   -0.0440 N   0  0  0  0  0  0  0  0  0  0  0  0
    0.8120   13.6380   -2.9430 C   0  0  0  0  0  0  0  0  0  0  0  0
   -0.7730   13.1700   -4.5080 C   0  0  0  0  0  0  0  0  0  0  0  0
   -5.7340   15.1160   -0.0570 N   0  0  0  0  0  0  0  0  0  0  0  0
   -3.6230   15.0530    1.0920 C   0  0  0  0  0  0  0  0  0  0  0  0
   -0.2840   15.7520   -3.8540 C   0  0  1  0  0  0  0  0  0  0  0  0
    0.6790   12.4120   -2.1250 C   0  0  0  0  0  0  0  0  0  0  0  0
   -1.8730   12.2930   -4.3780 C   0  0  0  0  0  0  0  0  0  0  0  0
    0.0720   12.9930   -5.6180 C   0  0  0  0  0  0  0  0  0  0  0  0
   -5.0060   15.1180    1.0880 C   0  0  0  0  0  0  0  0  0  0  0  0
    0.7280   16.1060   -4.9690 C   0  0  0  0  0  0  0  0  0  0  0  0
   -1.5440   16.4310   -4.3590 C   0  0  1  0  0  0  0  0  0  0  0  0
    0.5130   12.5100   -0.9350 O   0  0  0  0  0  0  0  0  0  0  0  0
    0.7230   11.2310   -2.7770 O   0  0  0  0  0  0  0  0  0  0  0  0
   -2.1080   11.2840   -5.3110 C   0  0  0  0  0  0  0  0  0  0  0  0
   -0.1670   11.9820   -6.5500 C   0  0  0  0  0  0  0  0  0  0  0  0
    0.1880   17.3020   -5.6550 N   0  0  0  0  0  0  0  0  0  0  0  0
   -0.9920   17.7240   -4.9500 C   0  0  1  0  0  0  0  0  0  0  0  0
   -2.5110   15.6690   -5.1940 C   0  0  0  0  0  0  0  0  0  0  0  0
    1.1300   18.3980   -5.7760 C   0  0  0  0  0  0  0  0  0  0  0  0
   -1.2520   11.1300   -6.3950 C   0  0  0  0  0  0  0  0  0  0  0  0
   -3.1300   16.2620   -6.1890 C   0  0  0  0  0  0  0  0  0  0  0  0
   -1.8890   18.3360   -5.9180 C   0  0  0  0  0  0  0  0  0  0  0  0
   -2.8440   17.6500   -6.4650 C   0  0  0  0  0  0  0  0  0  0  0  0
  1  2  2  0
  2  3  1  0
  2  4  1  0
  5  3  1  0
  4  6  2  0
  4  7  1  0
  5  8  1  1
  5  9  1  0
  6 10  1  0
  7 11  2  0
  5 12  1  0
  8 13  1  0
  9 14  2  0
  9 15  1  0
 10 16  2  0
 11 16  1  0
 12 17  1  6
 12 18  1  0
 13 19  2  0
 13 20  1  0
 14 21  1  0
 15 22  2  0
 17 23  1  0
 18 24  1  0
 23 24  1  0
 18 25  1  6
 23 26  1  0
 21 27  2  0
 22 27  1  0
 25 28  2  0
 24 29  1  6
 28 30  1  0
 29 30  2  0
M  END
