mac-x0271-mac-x0148
     RDKit          3D

 26 30  0  0  0  0  0  0  0  0999 V2000
   -3.9690   13.6070   -2.7140 O   0  0  0  0  0  0  0  0  0  0  0  0
   -4.0870   14.8260   -1.9800 C   0  0  2  0  0  0  0  0  0  0  0  0
   -3.1280   14.8390   -0.6980 C   0  0  1  0  0  0  0  0  0  0  0  0
   -5.6000   15.1360   -1.8330 C   0  0  0  0  0  0  0  0  0  0  0  0
   -6.1120   14.9760   -0.4580 C   0  0  0  0  0  0  0  0  0  0  0  0
   -3.8640   15.6130    0.4620 C   0  0  0  0  0  0  0  0  0  0  0  0
   -2.9320   13.6410    0.2060 C   0  0  0  0  0  0  0  0  0  0  0  0
   -1.5780   14.6370   -1.1310 C   0  0  1  0  0  0  0  0  0  0  0  0
   -5.3360   15.1780    0.6030 C   0  0  0  0  0  0  0  0  0  0  0  0
   -7.4810   14.5920   -0.3650 O   0  0  0  0  0  0  0  0  0  0  0  0
   -0.9940   14.6410   -2.4880 N   0  0  0  0  0  0  0  0  0  0  0  0
   -0.5480   15.1030   -0.2250 N   0  0  0  0  0  0  0  0  0  0  0  0
   -1.9470   13.9770    1.2910 N   0  0  0  0  0  0  0  0  0  0  0  0
   -5.9510   14.9620    1.8990 C   0  0  0  0  0  0  0  0  0  0  0  0
   -8.1470   14.7430    0.8180 C   0  0  0  0  0  0  0  0  0  0  0  0
   -1.9440   14.5130   -3.6220 C   0  0  1  0  0  0  0  0  0  0  0  0
    0.2690   13.8880   -2.5880 C   0  0  0  0  0  0  0  0  0  0  0  0
   -0.5660   14.3200    0.9600 C   0  0  0  0  0  0  0  0  0  0  0  0
   -9.3690   14.8770    0.8980 O   0  0  0  0  0  0  0  0  0  0  0  0
   -7.2860   14.7480    2.0140 C   0  0  0  0  0  0  0  0  0  0  0  0
   -1.9790   15.6320   -4.6470 C   0  0  0  0  0  0  0  0  0  0  0  0
   -1.8630   13.2620   -4.5280 C   0  0  1  0  0  0  0  0  0  0  0  0
    0.1140   12.5430   -3.3090 C   0  0  0  0  0  0  0  0  0  0  0  0
   -2.5040   13.7030   -5.8300 C   0  0  0  0  0  0  0  0  0  0  0  0
   -2.7220   15.1170   -5.7660 O   0  0  0  0  0  0  0  0  0  0  0  0
   -0.4510   12.7360   -4.6990 C   0  0  0  0  0  0  0  0  0  0  0  0
  2  1  1  1
  2  3  1  0
  2  4  1  0
  4  5  1  0
  3  6  1  1
  3  7  1  0
  3  8  1  0
  5  9  2  0
  6  9  1  0
  5 10  1  0
  8 11  1  6
  8 12  1  0
  7 13  1  0
  9 14  1  0
 10 15  1  0
 11 16  1  0
 11 17  1  0
 12 18  1  0
 13 18  1  0
 15 19  2  0
 14 20  2  0
 15 20  1  0
 16 21  1  6
 16 22  1  0
 17 23  1  0
 22 24  1  6
 21 25  1  0
 24 25  1  0
 22 26  1  0
 23 26  1  0
M  END
