mac-x0182-mac-x0436
     RDKit          3D

 16 18  0  0  0  0  0  0  0  0999 V2000
    1.7220   11.7370   -6.9560 O   0  0  0  0  0  0  0  0  0  0  0  0
    0.6550   11.5780   -6.4060 C   0  0  0  0  0  0  0  0  0  0  0  0
    0.1160   12.3580   -5.4120 N   0  0  0  0  0  0  0  0  0  0  0  0
   -0.2530   10.4530   -6.7150 C   0  0  0  0  0  0  0  0  0  0  0  0
    0.8930   13.4050   -4.8240 C   0  0  0  0  0  0  0  0  0  0  0  0
   -0.8410   11.3600   -4.4130 S   0  0  2  0  0  0  0  0  0  0  0  0
   -1.1450   10.2140   -5.6750 C   0  0  0  0  0  0  0  0  0  0  0  0
   -0.2790    9.6850   -7.8650 C   0  0  0  0  0  0  0  0  0  0  0  0
   -2.0250   12.1510   -4.1980 O   0  0  0  0  0  0  0  0  0  0  0  0
    0.1730   10.9410   -3.3580 N   0  0  0  0  0  0  0  0  0  0  0  0
    1.7390   12.9040   -3.6680 C   0  0  0  0  0  0  0  0  0  0  0  0
   -2.0920    9.2110   -5.7200 C   0  0  0  0  0  0  0  0  0  0  0  0
   -1.2330    8.6610   -7.9420 C   0  0  0  0  0  0  0  0  0  0  0  0
    0.8800   12.0160   -2.7680 C   0  0  0  0  0  0  0  0  0  0  0  0
   -2.1300    8.4260   -6.8780 C   0  0  0  0  0  0  0  0  0  0  0  0
    0.8180   12.2780   -1.5620 O   0  0  0  0  0  0  0  0  0  0  0  0
  1  2  2  0
  2  3  1  0
  2  4  1  0
  3  5  1  0
  3  6  1  0
  4  7  2  0
  6  7  1  6
  4  8  1  0
  6  9  2  0
  6 10  2  0
  5 11  1  0
  7 12  1  0
  8 13  2  0
 10 14  1  0
 11 14  1  0
 12 15  2  0
 13 15  1  0
 14 16  2  0
M  END
