mac-x0159-diamond-x0685_0_A
     RDKit          3D

 29 32  0  0  0  0  0  0  0  0999 V2000
   -3.7850   15.8560    0.3880 N   0  0  0  0  0  0  0  0  0  0  0  0
   -2.9210   15.5530   -0.7520 C   0  0  1  0  0  0  0  0  0  0  0  0
   -1.4400   15.7830   -0.4520 C   0  0  2  0  0  0  0  0  0  0  0  0
   -3.2300   14.1840   -1.0520 N   0  0  0  0  0  0  0  0  0  0  0  0
   -2.3430   13.4760   -1.9670 C   0  0  0  0  0  0  0  0  0  0  0  0
   -0.5660   15.0720   -1.4860 C   0  0  2  0  0  0  0  0  0  0  0  0
   -1.1360   15.2340    0.8740 N   0  0  0  0  0  0  0  0  0  0  0  0
   -1.3200   14.3590   -2.4930 N   0  0  0  0  0  0  0  0  0  0  0  0
    0.1560   14.0850   -0.6890 N   0  0  0  0  0  0  0  0  0  0  0  0
    0.1250   14.6000    0.6720 C   0  0  0  0  0  0  0  0  0  0  0  0
   -1.5280   14.7710   -3.9160 C   0  0  1  0  0  0  0  0  0  0  0  0
   -2.9750   14.8560   -4.4920 C   0  0  0  0  0  0  0  0  0  0  0  0
   -0.7970   16.0530   -4.2930 C   0  0  0  0  0  0  0  0  0  0  0  0
   -3.9740   14.8710   -3.4110 C   0  0  0  0  0  0  0  0  0  0  0  0
    0.4960   16.4610   -3.9930 C   0  0  0  0  0  0  0  0  0  0  0  0
   -1.5150   16.9650   -5.0660 N   0  0  0  0  0  0  0  0  0  0  0  0
   -4.7460   14.8340   -2.4940 C   0  0  0  0  0  0  0  0  0  0  0  0
   -0.7880   18.0180   -5.3410 C   0  0  0  0  0  0  0  0  0  0  0  0
    0.8030   17.9980   -4.6900 S   0  0  0  0  0  0  0  0  0  0  0  0
   -1.2710   19.1670   -6.1610 C   0  0  0  0  0  0  0  0  0  0  0  0
   -5.6030   14.7460   -1.3560 C   0  0  0  0  0  0  0  0  0  0  0  0
   -5.1930   14.0690   -0.2010 C   0  0  0  0  0  0  0  0  0  0  0  0
   -6.8620   15.3170   -1.3500 C   0  0  0  0  0  0  0  0  0  0  0  0
   -6.0450   14.0030    0.8900 C   0  0  0  0  0  0  0  0  0  0  0  0
   -7.7080   15.2560   -0.2920 N   0  0  0  0  0  0  0  0  0  0  0  0
   -7.2970   14.6080    0.8180 C   0  0  0  0  0  0  0  0  0  0  0  0
   -8.1280   14.5260    1.9480 N   0  0  0  0  0  0  0  0  0  0  0  0
   -7.4680   14.1380    3.1870 C   0  0  0  0  0  0  0  0  0  0  0  0
   -8.4660   13.9330    4.3160 C   0  0  0  0  0  0  0  0  0  0  0  0
  2  1  1  1
  2  3  1  0
  2  4  1  0
  4  5  1  0
  3  6  1  0
  3  7  1  1
  5  8  1  0
  6  8  1  0
  6  9  1  1
  7 10  1  0
  9 10  1  0
  8 11  1  0
 11 12  1  1
 11 13  1  0
 12 14  1  0
 13 15  2  0
 13 16  1  0
 14 17  3  0
 16 18  2  0
 15 19  1  0
 18 19  1  0
 18 20  1  0
 17 21  1  0
 21 22  2  0
 21 23  1  0
 22 24  1  0
 23 25  2  0
 24 26  2  0
 25 26  1  0
 26 27  1  0
 27 28  1  0
 28 29  1  0
M  END
