mac-x0204-mac-x0301
     RDKit          3D

 20 22  0  0  0  0  0  0  0  0999 V2000
    0.2950   12.4400   -2.6100 O   0  0  0  0  0  0  0  0  0  0  0  0
    0.1040   13.5930   -3.4270 C   0  0  2  0  0  0  0  0  0  0  0  0
   -0.1740   14.8530   -2.6910 C   0  0  0  0  0  0  0  0  0  0  0  0
   -1.0860   13.6270   -4.3030 C   0  0  0  0  0  0  0  0  0  0  0  0
    0.4090   15.8680   -2.9970 O   0  0  0  0  0  0  0  0  0  0  0  0
   -1.4960   14.8830   -4.7760 C   0  0  0  0  0  0  0  0  0  0  0  0
   -1.8240   12.5210   -4.6710 C   0  0  0  0  0  0  0  0  0  0  0  0
   -1.2450   14.8900   -1.6680 C   0  0  0  0  0  0  0  0  0  0  0  0
   -2.6040   14.9890   -5.5830 C   0  0  0  0  0  0  0  0  0  0  0  0
   -2.9170   12.5940   -5.4650 N   0  0  0  0  0  0  0  0  0  0  0  0
   -0.9730   14.7290   -0.3520 C   0  0  0  0  0  0  0  0  0  0  0  0
   -2.5950   15.1120   -2.0420 C   0  0  0  0  0  0  0  0  0  0  0  0
   -3.0190   16.2010   -6.0540 O   0  0  0  0  0  0  0  0  0  0  0  0
   -3.2830   13.8280   -5.9020 C   0  0  0  0  0  0  0  0  0  0  0  0
   -1.9590   14.7910    0.6100 C   0  0  0  0  0  0  0  0  0  0  0  0
   -3.6080   15.1740   -1.0590 C   0  0  0  0  0  0  0  0  0  0  0  0
    0.2380   14.5010    0.1770 O   0  0  0  0  0  0  0  0  0  0  0  0
   -3.2850   15.0140    0.2930 C   0  0  0  0  0  0  0  0  0  0  0  0
   -1.4540   14.6120    1.8610 O   0  0  0  0  0  0  0  0  0  0  0  0
   -0.1230   14.2010    1.5320 C   0  0  0  0  0  0  0  0  0  0  0  0
  2  1  1  1
  2  3  1  0
  2  4  1  0
  3  5  2  0
  4  6  2  0
  4  7  1  0
  3  8  1  0
  6  9  1  0
  7 10  2  0
  8 11  1  0
  8 12  2  0
  9 13  1  0
  9 14  2  0
 10 14  1  0
 11 15  2  0
 12 16  1  0
 11 17  1  0
 15 18  1  0
 16 18  2  0
 15 19  1  0
 17 20  1  0
 19 20  1  0
M  END
