mac-x0417-mac-x0375
     RDKit          3D

 14 16  0  0  0  0  0  0  0  0999 V2000
    1.3180   13.0480   -2.9550 O   0  0  0  0  0  0  0  0  0  0  0  0
    0.7050   12.0130   -3.5880 C   0  0  0  0  0  0  0  0  0  0  0  0
    0.7010   10.8990   -3.0910 O   0  0  0  0  0  0  0  0  0  0  0  0
    0.0270   12.3620   -4.9130 C   0  0  2  0  0  0  0  0  0  0  0  0
   -1.3890   11.7040   -4.7180 O   0  0  0  0  0  0  0  0  0  0  0  0
    0.5280   11.6630   -6.1110 C   0  0  0  0  0  0  0  0  0  0  0  0
    1.5250   11.5840   -6.9500 N   0  0  0  0  0  0  0  0  0  0  0  0
   -0.4380   10.7700   -6.4150 C   0  0  0  0  0  0  0  0  0  0  0  0
   -1.5300   10.7330   -5.6610 C   0  0  0  0  0  0  0  0  0  0  0  0
    1.1220   10.5090   -7.8680 O   0  0  0  0  0  0  0  0  0  0  0  0
   -0.1110   10.0320   -7.4800 C   0  0  0  0  0  0  0  0  0  0  0  0
   -2.4660    9.7840   -6.0100 C   0  0  0  0  0  0  0  0  0  0  0  0
   -0.9850    9.0540   -7.9190 C   0  0  0  0  0  0  0  0  0  0  0  0
   -2.1870    8.9480   -7.1370 C   0  0  0  0  0  0  0  0  0  0  0  0
  1  2  1  0
  2  3  2  0
  4  2  1  1
  4  5  1  0
  4  6  1  0
  6  7  2  0
  6  8  1  0
  5  9  1  0
  8  9  2  0
  7 10  1  0
  8 11  1  0
 10 11  1  0
  9 12  1  0
 11 13  2  0
 12 14  2  0
 13 14  1  0
M  END
