mac-x0282-mac-x0357
     RDKit          3D

 20 22  0  0  0  0  0  0  0  0999 V2000
    2.3620   13.2550   -4.3610 C   0  0  0  0  0  0  0  0  0  0  0  0
    1.0890   12.5640   -4.7700 C   0  0  0  0  0  0  0  0  0  0  0  0
    1.0080   11.9490   -6.0210 C   0  0  0  0  0  0  0  0  0  0  0  0
   -0.0560   12.4840   -3.9660 C   0  0  0  0  0  0  0  0  0  0  0  0
    2.0960   12.0050   -6.8090 O   0  0  0  0  0  0  0  0  0  0  0  0
   -0.2210   13.0500   -2.6270 C   0  0  0  0  0  0  0  0  0  0  0  0
   -1.2070   11.8170   -4.4140 C   0  0  0  0  0  0  0  0  0  0  0  0
   -0.1300   11.2870   -6.4780 C   0  0  0  0  0  0  0  0  0  0  0  0
   -0.9230   14.0750   -2.2880 N   0  0  0  0  0  0  0  0  0  0  0  0
    0.4380   12.3390   -1.6690 O   0  0  0  0  0  0  0  0  0  0  0  0
   -1.2480   11.2200   -5.6650 C   0  0  0  0  0  0  0  0  0  0  0  0
   -1.0510   14.3500   -0.9460 C   0  0  0  0  0  0  0  0  0  0  0  0
   -2.3190   14.7430   -0.4750 C   0  0  0  0  0  0  0  0  0  0  0  0
   -0.0030   14.2350   -0.0530 C   0  0  0  0  0  0  0  0  0  0  0  0
   -3.6120   14.9880   -1.0210 C   0  0  0  0  0  0  0  0  0  0  0  0
   -2.4190   14.9700    0.8810 C   0  0  0  0  0  0  0  0  0  0  0  0
   -0.2640   14.5000    1.2770 C   0  0  0  0  0  0  0  0  0  0  0  0
   -4.4430   15.3490    0.0140 C   0  0  0  0  0  0  0  0  0  0  0  0
   -3.7030   15.3300    1.1630 N   0  0  0  0  0  0  0  0  0  0  0  0
   -1.4500   14.8630    1.7880 N   0  0  0  0  0  0  0  0  0  0  0  0
  1  2  1  0
  2  3  2  0
  2  4  1  0
  3  5  1  0
  4  6  1  0
  4  7  2  0
  3  8  1  0
  6  9  2  3
  6 10  1  0
  7 11  1  0
  8 11  2  0
  9 12  1  0
 12 13  1  0
 12 14  2  0
 13 15  1  0
 13 16  2  0
 14 17  1  0
 15 18  2  0
 16 19  1  0
 18 19  1  0
 16 20  1  0
 17 20  2  0
M  END
