mac-x0451-mac-x0231
     RDKit          3D

 26 29  0  0  0  0  0  0  0  0999 V2000
   -6.5150   14.6710    2.5960 N   0  0  0  0  0  0  0  0  0  0  0  0
   -5.7430   14.8850    1.5280 C   0  0  0  0  0  0  0  0  0  0  0  0
   -6.2340   14.7240    0.3530 N   0  0  0  0  0  0  0  0  0  0  0  0
   -4.0950   15.3990    1.5890 S   0  0  0  0  0  0  0  0  0  0  0  0
   -5.3040   15.0450   -0.5920 C   0  0  0  0  0  0  0  0  0  0  0  0
   -4.0520   15.4570   -0.1410 C   0  0  0  0  0  0  0  0  0  0  0  0
   -5.5590   14.9840   -1.9530 C   0  0  0  0  0  0  0  0  0  0  0  0
   -3.0280   15.8390   -1.0550 C   0  0  0  0  0  0  0  0  0  0  0  0
   -4.5880   15.3560   -2.8520 C   0  0  0  0  0  0  0  0  0  0  0  0
   -3.3510   15.7960   -2.4440 C   0  0  0  0  0  0  0  0  0  0  0  0
   -2.5430   16.1770   -3.5330 O   0  0  0  0  0  0  0  0  0  0  0  0
   -1.9650   15.1200   -4.0870 C   0  0  0  0  0  0  0  0  0  0  0  0
   -0.5900   15.0750   -4.2000 C   0  0  0  0  0  0  0  0  0  0  0  0
   -2.7890   14.0750   -4.5070 C   0  0  0  0  0  0  0  0  0  0  0  0
   -0.0420   13.9000   -4.6530 C   0  0  0  0  0  0  0  0  0  0  0  0
    0.3240   16.2000   -3.8580 C   0  0  0  0  0  0  0  0  0  0  0  0
   -2.2300   12.9270   -5.0230 C   0  0  0  0  0  0  0  0  0  0  0  0
   -0.0130   17.2400   -3.3170 O   0  0  0  0  0  0  0  0  0  0  0  0
    1.4200   13.8230   -4.6140 C   0  0  0  0  0  0  0  0  0  0  0  0
    1.6170   16.0210   -4.2890 N   0  0  0  0  0  0  0  0  0  0  0  0
   -0.8440   12.8310   -5.0800 C   0  0  0  0  0  0  0  0  0  0  0  0
    2.0090   12.4530   -4.6210 C   0  0  0  0  0  0  0  0  0  0  0  0
    2.2030   14.8250   -4.4300 N   0  0  0  0  0  0  0  0  0  0  0  0
    1.5750   11.9290   -3.2730 C   0  0  0  0  0  0  0  0  0  0  0  0
    1.0250   10.7130   -3.2830 O   0  0  0  0  0  0  0  0  0  0  0  0
    1.6660   12.5250   -2.2120 O   0  0  0  0  0  0  0  0  0  0  0  0
  1  2  1  0
  2  3  2  0
  2  4  1  0
  3  5  1  0
  4  6  1  0
  5  6  2  0
  5  7  1  0
  6  8  1  0
  7  9  2  0
  8 10  2  0
  9 10  1  0
 10 11  1  0
 11 12  1  0
 12 13  1  0
 12 14  2  0
 13 15  2  0
 13 16  1  0
 14 17  1  0
 16 18  2  0
 15 19  1  0
 16 20  1  0
 15 21  1  0
 17 21  2  0
 19 22  1  0
 19 23  2  0
 20 23  1  0
 22 24  1  0
 24 25  1  0
 24 26  2  0
M  END
