mac-x0572-mac-x0271
     RDKit          3D

 14 15  0  0  0  0  0  0  0  0999 V2000
   -7.9210   14.5900    3.2200 C   0  0  0  0  0  0  0  0  0  0  0  0
   -7.1370   14.6920    1.9330 C   0  0  0  0  0  0  0  0  0  0  0  0
   -5.8140   15.0120    2.1140 N   0  0  0  0  0  0  0  0  0  0  0  0
   -7.7050   14.4950    0.7340 C   0  0  0  0  0  0  0  0  0  0  0  0
   -9.0390   14.1850    0.5610 O   0  0  0  0  0  0  0  0  0  0  0  0
   -6.8390   14.6250   -0.4730 C   0  0  0  0  0  0  0  0  0  0  0  0
   -4.9660   14.9370    1.1390 C   0  0  0  0  0  0  0  0  0  0  0  0
   -7.3730   14.8090   -1.5660 O   0  0  0  0  0  0  0  0  0  0  0  0
   -5.3370   14.5030   -0.2660 C   0  0  2  0  0  0  0  0  0  0  0  0
   -3.5610   15.3000    1.4250 C   0  0  0  0  0  0  0  0  0  0  0  0
   -2.7670   15.6470    0.4110 C   0  0  0  0  0  0  0  0  0  0  0  0
   -4.4160   15.1470   -1.3030 C   0  0  0  0  0  0  0  0  0  0  0  0
   -4.7580   15.2030   -2.6470 O   0  0  0  0  0  0  0  0  0  0  0  0
   -3.2310   15.6690   -0.9500 C   0  0  0  0  0  0  0  0  0  0  0  0
  1  2  1  0
  2  3  1  0
  2  4  2  0
  4  5  1  0
  4  6  1  0
  3  7  2  0
  6  8  2  0
  9  6  1  6
  7  9  1  0
  7 10  1  0
 10 11  2  0
  9 12  1  0
 12 13  1  0
 11 14  1  0
 12 14  2  0
M  END
