mac-x0301-mac-x0380
     RDKit          3D

 25 28  0  0  0  0  0  0  0  0999 V2000
   -0.5880   13.4650   -3.2490 O   0  0  0  0  0  0  0  0  0  0  0  0
   -1.5170   14.5080   -3.0340 C   0  0  0  0  0  0  0  0  0  0  0  0
   -1.0880   15.6160   -3.8020 O   0  0  0  0  0  0  0  0  0  0  0  0
   -3.0200   14.2430   -3.3090 C   0  0  0  0  0  0  0  0  0  0  0  0
   -1.9260   14.8530   -1.6390 C   0  0  0  0  0  0  0  0  0  0  0  0
   -3.4940   14.0430   -4.4250 O   0  0  0  0  0  0  0  0  0  0  0  0
   -1.3030   14.6550   -0.4200 C   0  0  0  0  0  0  0  0  0  0  0  0
   -3.2020   15.4710   -1.6020 C   0  0  0  0  0  0  0  0  0  0  0  0
   -3.9000   14.3280   -2.0580 C   0  0  0  0  0  0  0  0  0  0  0  0
   -1.9280   15.0490    0.7650 C   0  0  0  0  0  0  0  0  0  0  0  0
   -3.8130   15.8630   -0.4030 C   0  0  0  0  0  0  0  0  0  0  0  0
   -0.0980   14.0870   -0.1860 O   0  0  0  0  0  0  0  0  0  0  0  0
   -5.2450   14.7560   -2.0220 C   0  0  0  0  0  0  0  0  0  0  0  0
   -3.3070   13.9550   -0.8250 C   0  0  0  0  0  0  0  0  0  0  0  0
   -3.1700   15.6480    0.8000 C   0  0  0  0  0  0  0  0  0  0  0  0
   -1.1910   14.7760    1.8540 O   0  0  0  0  0  0  0  0  0  0  0  0
    0.0210   14.3940    1.2230 C   0  0  0  0  0  0  0  0  0  0  0  0
   -5.9500   14.8170   -0.7940 C   0  0  0  0  0  0  0  0  0  0  0  0
   -4.0110   14.0250    0.3960 C   0  0  0  0  0  0  0  0  0  0  0  0
   -5.3310   14.4630    0.4150 C   0  0  0  0  0  0  0  0  0  0  0  0
   -7.6430   15.3510   -0.8080 S   0  0  0  0  0  0  0  0  0  0  0  0
   -5.9960   14.5310    1.6600 N   0  0  0  0  0  0  0  0  0  0  0  0
   -8.2050   14.3730    0.6070 C   0  0  0  0  0  0  0  0  0  0  0  0
   -7.3460   14.5450    1.8320 C   0  0  0  0  0  0  0  0  0  0  0  0
   -7.8400   14.6990    2.9570 O   0  0  0  0  0  0  0  0  0  0  0  0
  2  1  1  0
  2  3  1  0
  2  4  1  0
  2  5  1  0
  4  6  2  0
  5  7  1  0
  5  8  2  0
  4  9  1  0
  7 10  2  0
  8 11  1  0
  7 12  1  0
  9 13  2  0
  9 14  1  0
 10 15  1  0
 11 15  2  0
 10 16  1  0
 12 17  1  0
 16 17  1  0
 13 18  1  0
 14 19  2  0
 18 20  2  0
 19 20  1  0
 18 21  1  0
 20 22  1  0
 21 23  1  0
 22 24  1  0
 23 24  1  0
 24 25  2  0
M  END
