mac-x0345-mac-x0148
     RDKit          3D

 25 29  0  0  0  0  0  0  0  0999 V2000
   -8.1360   14.8090   -0.2810 C   0  0  0  0  0  0  0  0  0  0  0  0
   -6.6410   14.8950   -0.4070 C   0  0  0  0  0  0  0  0  0  0  0  0
   -6.1210   15.0650   -1.6750 N   0  0  0  0  0  0  0  0  0  0  0  0
   -5.8350   14.8070    0.6330 C   0  0  0  0  0  0  0  0  0  0  0  0
   -6.3210   14.5410    2.3950 Br  0  0  0  0  0  0  0  0  0  0  0  0
   -4.4080   14.9060    0.3790 C   0  0  0  0  0  0  0  0  0  0  0  0
   -4.7810   14.9700   -2.0200 C   0  0  0  0  0  0  0  0  0  0  0  0
   -4.5240   14.9780   -3.3620 N   0  0  0  0  0  0  0  0  0  0  0  0
   -3.8470   14.8870   -1.0050 C   0  0  0  0  0  0  0  0  0  0  0  0
   -3.5450   15.0000    1.3060 N   0  0  0  0  0  0  0  0  0  0  0  0
   -2.3340   14.9150    0.6720 C   0  0  0  0  0  0  0  0  0  0  0  0
   -2.3760   14.7980   -0.7320 C   0  0  0  0  0  0  0  0  0  0  0  0
   -1.2900   14.9310    1.4700 N   0  0  0  0  0  0  0  0  0  0  0  0
   -1.0930   14.6510   -1.3070 C   0  0  0  0  0  0  0  0  0  0  0  0
   -0.7490   14.4790   -2.6740 N   0  0  0  0  0  0  0  0  0  0  0  0
   -0.0070   14.6730   -0.4970 N   0  0  0  0  0  0  0  0  0  0  0  0
   -0.1650   14.8180    0.8260 C   0  0  0  0  0  0  0  0  0  0  0  0
   -1.7770   14.3610   -3.7320 C   0  0  1  0  0  0  0  0  0  0  0  0
    0.2200   13.3310   -2.6700 C   0  0  0  0  0  0  0  0  0  0  0  0
   -2.4640   15.5690   -4.3300 C   0  0  0  0  0  0  0  0  0  0  0  0
   -1.2750   13.7220   -5.0190 C   0  0  2  0  0  0  0  0  0  0  0  0
   -0.3770   12.0910   -3.3410 C   0  0  0  0  0  0  0  0  0  0  0  0
   -2.5700   13.7510   -5.7950 C   0  0  0  0  0  0  0  0  0  0  0  0
   -3.1320   15.0510   -5.5130 O   0  0  0  0  0  0  0  0  0  0  0  0
   -0.6210   12.3600   -4.8270 C   0  0  0  0  0  0  0  0  0  0  0  0
  1  2  1  0
  2  3  1  0
  2  4  2  0
  4  5  1  0
  4  6  1  0
  3  7  1  0
  7  8  1  0
  6  9  1  0
  7  9  2  0
  6 10  2  0
 10 11  1  0
  9 12  1  0
 11 12  2  0
 11 13  1  0
 12 14  1  0
 14 15  1  0
 14 16  2  0
 13 17  2  0
 16 17  1  0
 15 18  1  0
 15 19  1  0
 18 20  1  6
 18 21  1  0
 19 22  1  0
 21 23  1  6
 20 24  1  0
 23 24  1  0
 21 25  1  0
 22 25  1  0
M  END
