mac-x0228-diamond-x0689_0_A
     RDKit          3D

 20 22  0  0  0  0  0  0  0  0999 V2000
   -1.1010   14.2250   -2.4780 O   0  0  0  0  0  0  0  0  0  0  0  0
   -2.0820   14.6300   -3.3060 C   0  0  0  0  0  0  0  0  0  0  0  0
   -1.8940   14.9100   -4.4710 O   0  0  0  0  0  0  0  0  0  0  0  0
   -3.4160   14.6990   -2.6690 C   0  0  0  0  0  0  0  0  0  0  0  0
   -3.5520   15.0150   -1.3340 C   0  0  0  0  0  0  0  0  0  0  0  0
   -4.5540   14.4400   -3.4530 C   0  0  0  0  0  0  0  0  0  0  0  0
   -4.8120   15.0590   -0.8210 C   0  0  0  0  0  0  0  0  0  0  0  0
   -5.8390   14.4880   -2.8970 C   0  0  0  0  0  0  0  0  0  0  0  0
   -5.9390   14.7990   -1.5680 C   0  0  0  0  0  0  0  0  0  0  0  0
   -5.2560   15.3860    0.5020 C   0  0  2  0  0  0  0  0  0  0  0  0
   -4.4000   15.1990    1.7110 C   0  0  0  0  0  0  0  0  0  0  0  0
   -7.1130   14.8860   -0.8440 O   0  0  0  0  0  0  0  0  0  0  0  0
   -6.6050   14.6520    0.4860 C   0  0  0  0  0  0  0  0  0  0  0  0
   -3.5380   14.0680    1.5740 N   0  0  0  0  0  0  0  0  0  0  0  0
   -2.3010   14.3250    1.0360 C   0  0  0  0  0  0  0  0  0  0  0  0
   -2.1330   14.5020   -0.2720 N   0  0  0  0  0  0  0  0  0  0  0  0
   -1.3270   14.3730    1.9140 N   0  0  0  0  0  0  0  0  0  0  0  0
   -0.8830   14.7340   -0.7010 C   0  0  0  0  0  0  0  0  0  0  0  0
   -0.1090   14.6000    1.4400 C   0  0  0  0  0  0  0  0  0  0  0  0
    0.1850   14.7910    0.1270 C   0  0  0  0  0  0  0  0  0  0  0  0
  1  2  1  0
  2  3  2  0
  2  4  1  0
  4  5  2  0
  4  6  1  0
  5  7  1  0
  6  8  2  0
  7  9  2  0
  8  9  1  0
  7 10  1  0
 10 11  1  1
  9 12  1  0
 10 13  1  0
 12 13  1  0
 11 14  1  0
 14 15  1  0
 15 16  2  0
 15 17  1  0
 16 18  1  0
 17 19  2  0
 18 20  2  0
 19 20  1  0
M  END
