mac-x0375-mac-x0546
     RDKit          3D

 22 24  0  0  0  0  0  0  0  0999 V2000
    1.5570   12.7970   -2.4520 O   0  0  0  0  0  0  0  0  0  0  0  0
    0.8050   11.9250   -3.1570 C   0  0  0  0  0  0  0  0  0  0  0  0
    0.7440   10.7720   -2.7820 O   0  0  0  0  0  0  0  0  0  0  0  0
    0.1030   12.5380   -4.3720 C   0  0  2  0  0  0  0  0  0  0  0  0
    0.4340   11.7800   -5.5520 O   0  0  0  0  0  0  0  0  0  0  0  0
    0.4310   13.9850   -4.5050 C   0  0  0  0  0  0  0  0  0  0  0  0
   -0.5350   10.8720   -5.9060 C   0  0  0  0  0  0  0  0  0  0  0  0
   -0.5800   15.0600   -4.2960 C   0  0  2  0  0  0  0  0  0  0  0  0
    1.5910   14.5420   -4.7910 C   0  0  0  0  0  0  0  0  0  0  0  0
   -0.3560    9.7770   -6.7510 C   0  0  0  0  0  0  0  0  0  0  0  0
   -1.7900   11.1090   -5.3410 C   0  0  0  0  0  0  0  0  0  0  0  0
   -1.8580   15.1260   -5.0370 C   0  0  0  0  0  0  0  0  0  0  0  0
    0.3140   16.2120   -4.6840 C   0  0  0  0  0  0  0  0  0  0  0  0
    1.5420   15.9080   -4.9020 N   0  0  0  0  0  0  0  0  0  0  0  0
   -1.4320    8.9240   -7.0210 C   0  0  0  0  0  0  0  0  0  0  0  0
   -2.8590   10.2590   -5.6120 C   0  0  0  0  0  0  0  0  0  0  0  0
   -2.3300   16.3220   -5.4240 C   0  0  0  0  0  0  0  0  0  0  0  0
   -0.2800   17.5540   -4.7730 C   0  0  0  0  0  0  0  0  0  0  0  0
   -3.5010   16.5180   -6.0880 O   0  0  0  0  0  0  0  0  0  0  0  0
   -2.6800    9.1690   -6.4490 C   0  0  0  0  0  0  0  0  0  0  0  0
   -1.5800   17.5490   -5.1440 C   0  0  0  0  0  0  0  0  0  0  0  0
   -4.3920   15.4040   -6.1500 C   0  0  0  0  0  0  0  0  0  0  0  0
  1  2  1  0
  2  3  2  0
  2  4  1  0
  4  5  1  6
  4  6  1  0
  5  7  1  0
  6  8  1  0
  6  9  2  0
  7 10  2  0
  7 11  1  0
  8 12  1  6
  8 13  1  0
  9 14  1  0
 13 14  2  0
 10 15  1  0
 11 16  2  0
 12 17  2  0
 13 18  1  0
 17 19  1  0
 15 20  2  0
 16 20  1  0
 17 21  1  0
 18 21  2  0
 19 22  1  0
M  END
