mac-x0182-mac-x0180
     RDKit          3D

 26 28  0  0  0  0  0  0  0  0999 V2000
    1.7550   11.8340   -6.9770 O   0  0  0  0  0  0  0  0  0  0  0  0
    0.7850   11.5640   -6.3150 C   0  0  0  0  0  0  0  0  0  0  0  0
    0.4550   12.1380   -5.1220 N   0  0  0  0  0  0  0  0  0  0  0  0
   -0.2010   10.5170   -6.6860 C   0  0  0  0  0  0  0  0  0  0  0  0
   -0.6940   11.2410   -4.2910 S   0  0  2  0  0  0  0  0  0  0  0  0
   -1.0890   10.2340   -5.6530 C   0  0  0  0  0  0  0  0  0  0  0  0
   -0.2970    9.8460   -7.8970 C   0  0  0  0  0  0  0  0  0  0  0  0
   -1.7970   12.2590   -4.0010 N   0  0  0  0  0  0  0  0  0  0  0  0
    0.0530   10.4630   -3.3300 O   0  0  0  0  0  0  0  0  0  0  0  0
   -2.0930    9.2940   -5.7610 C   0  0  0  0  0  0  0  0  0  0  0  0
   -1.3100    8.8860   -8.0350 C   0  0  0  0  0  0  0  0  0  0  0  0
   -1.7340   13.6090   -4.5590 C   0  0  0  0  0  0  0  0  0  0  0  0
   -2.2000    8.6140   -6.9760 C   0  0  0  0  0  0  0  0  0  0  0  0
   -0.7000   14.3450   -3.8510 N   0  0  0  0  0  0  0  0  0  0  0  0
   -0.9450   14.8510   -2.7000 C   0  0  0  0  0  0  0  0  0  0  0  0
    0.0670   15.4900   -2.1040 O   0  0  0  0  0  0  0  0  0  0  0  0
   -2.1360   14.8880   -1.8390 C   0  0  0  0  0  0  0  0  0  0  0  0
   -2.0040   14.6690   -0.4600 C   0  0  0  0  0  0  0  0  0  0  0  0
   -3.3910   15.1430   -2.3930 C   0  0  0  0  0  0  0  0  0  0  0  0
   -3.1380   14.7060    0.3570 C   0  0  0  0  0  0  0  0  0  0  0  0
   -4.5170   15.1780   -1.5690 C   0  0  0  0  0  0  0  0  0  0  0  0
   -4.4040   14.9560   -0.1950 C   0  0  0  0  0  0  0  0  0  0  0  0
   -5.5060   14.9670    0.6760 N   0  0  0  0  0  0  0  0  0  0  0  0
   -6.8220   14.7870    0.2840 C   0  0  0  0  0  0  0  0  0  0  0  0
   -7.7690   14.5590    1.4360 C   0  0  0  0  0  0  0  0  0  0  0  0
   -7.2450   14.8050   -0.8640 O   0  0  0  0  0  0  0  0  0  0  0  0
  1  2  2  0
  2  3  1  0
  2  4  1  0
  5  3  1  6
  4  6  2  0
  5  6  1  0
  4  7  1  0
  5  8  2  0
  5  9  2  0
  6 10  1  0
  7 11  2  0
  8 12  1  0
 10 13  2  0
 11 13  1  0
 12 14  1  0
 14 15  2  3
 15 16  1  0
 15 17  1  0
 17 18  2  0
 17 19  1  0
 18 20  1  0
 19 21  2  0
 20 22  2  0
 21 22  1  0
 22 23  1  0
 23 24  1  0
 24 25  1  0
 24 26  2  0
M  END
