mac-x0496-diamond-x0805_0_A
     RDKit          3D

 36 39  0  0  0  0  0  0  0  0999 V2000
   -9.6940   17.6710    4.7030 C   0  0  0  0  0  0  0  0  0  0  0  0
   -9.6150   16.7090    3.5810 C   0  0  0  0  0  0  0  0  0  0  0  0
  -10.3510   16.7850    2.4600 N   0  0  0  0  0  0  0  0  0  0  0  0
   -8.7600   15.6530    3.6140 N   0  0  0  0  0  0  0  0  0  0  0  0
   -9.9440   15.6930    1.7080 O   0  0  0  0  0  0  0  0  0  0  0  0
   -8.9900   15.0720    2.4570 C   0  0  0  0  0  0  0  0  0  0  0  0
   -8.3520   13.8630    1.8910 C   0  0  0  0  0  0  0  0  0  0  0  0
   -7.0020   14.2130    1.4770 N   0  0  0  0  0  0  0  0  0  0  0  0
   -6.7830   14.7200    0.2050 C   0  0  0  0  0  0  0  0  0  0  0  0
   -7.7040   15.0130   -0.5390 O   0  0  0  0  0  0  0  0  0  0  0  0
   -5.3930   14.9050   -0.3010 C   0  0  0  0  0  0  0  0  0  0  0  0
   -4.2200   14.8510    0.4410 C   0  0  0  0  0  0  0  0  0  0  0  0
   -5.2160   15.1380   -1.6880 C   0  0  0  0  0  0  0  0  0  0  0  0
   -3.8580   14.6040    1.7580 C   0  0  0  0  0  0  0  0  0  0  0  0
   -2.9870   15.0260   -0.0950 C   0  0  0  0  0  0  0  0  0  0  0  0
   -3.8970   15.2830   -2.1940 C   0  0  0  0  0  0  0  0  0  0  0  0
   -3.4620   15.4890   -3.5760 C   0  0  0  0  0  0  0  0  0  0  0  0
   -2.5750   14.1850    1.1920 O   0  0  0  0  0  0  0  0  0  0  0  0
   -2.8230   15.2310   -1.3880 C   0  0  0  0  0  0  0  0  0  0  0  0
   -2.3140   15.8140   -3.8330 O   0  0  0  0  0  0  0  0  0  0  0  0
   -4.3900   15.2640   -4.5060 O   0  0  0  0  0  0  0  0  0  0  0  0
   -2.6690   13.7620   -0.1910 C   0  0  0  0  0  0  0  0  0  0  0  0
   -3.7780   13.0670   -0.7220 C   0  0  0  0  0  0  0  0  0  0  0  0
   -1.5950   14.0430   -1.1200 C   0  0  0  0  0  0  0  0  0  0  0  0
   -3.8310   12.6790   -2.0670 C   0  0  0  0  0  0  0  0  0  0  0  0
   -1.6460   13.6400   -2.5140 C   0  0  0  0  0  0  0  0  0  0  0  0
   -2.7880   12.9610   -2.9420 C   0  0  0  0  0  0  0  0  0  0  0  0
   -0.5030   13.9210   -3.5150 C   0  0  2  0  0  0  0  0  0  0  0  0
    0.4490   12.7180   -3.7400 C   0  0  2  0  0  0  0  0  0  0  0  0
    0.2620   15.2260   -3.2340 C   0  0  0  0  0  0  0  0  0  0  0  0
    0.5320   11.9460   -2.4430 C   0  0  0  0  0  0  0  0  0  0  0  0
    1.8230   13.0370   -4.3510 C   0  0  0  0  0  0  0  0  0  0  0  0
    1.5150   15.3580   -4.0810 C   0  0  0  0  0  0  0  0  0  0  0  0
    0.4270   10.5970   -2.5590 O   0  0  0  0  0  0  0  0  0  0  0  0
    0.6620   12.4470   -1.3420 O   0  0  0  0  0  0  0  0  0  0  0  0
    2.3760   14.2500   -3.8520 O   0  0  0  0  0  0  0  0  0  0  0  0
  1  2  1  0
  2  3  2  0
  2  4  1  0
  3  5  1  0
  4  6  2  0
  5  6  1  0
  6  7  1  0
  7  8  1  0
  8  9  1  0
  9 10  2  0
  9 11  1  0
 11 12  1  0
 11 13  2  0
 12 14  1  0
 12 15  2  0
 13 16  1  0
 16 17  1  0
 14 18  1  0
 15 19  1  0
 16 19  2  0
 17 20  2  0
 17 21  1  0
 18 22  1  0
 22 23  2  0
 22 24  1  0
 23 25  1  0
 24 26  2  0
 25 27  2  0
 26 27  1  0
 28 26  1  1
 28 29  1  0
 28 30  1  0
 29 31  1  1
 29 32  1  0
 30 33  1  0
 31 34  1  0
 31 35  2  0
 32 36  1  0
 33 36  1  0
M  END
