mac-x0344-mac-x0394
     RDKit          3D

 20 21  0  0  0  0  0  0  0  0999 V2000
    2.4020   13.1380   -4.6020 O   0  0  0  0  0  0  0  0  0  0  0  0
    1.1770   13.1430   -3.8970 C   0  0  0  0  0  0  0  0  0  0  0  0
    1.5430   13.2580   -2.5370 O   0  0  0  0  0  0  0  0  0  0  0  0
    0.3820   11.7990   -4.1860 C   0  0  0  0  0  0  0  0  0  0  0  0
    0.3700   14.3760   -4.3410 C   0  0  0  0  0  0  0  0  0  0  0  0
    0.0600   11.0270   -3.2790 O   0  0  0  0  0  0  0  0  0  0  0  0
    0.1170   11.6320   -5.5390 N   0  0  0  0  0  0  0  0  0  0  0  0
   -1.0080   14.3090   -4.6020 C   0  0  0  0  0  0  0  0  0  0  0  0
    1.0010   15.6330   -4.5020 C   0  0  0  0  0  0  0  0  0  0  0  0
   -0.7030   10.6630   -6.1410 C   0  0  0  0  0  0  0  0  0  0  0  0
   -1.7250   15.4430   -5.0020 C   0  0  0  0  0  0  0  0  0  0  0  0
    0.2580   16.7490   -4.9060 C   0  0  0  0  0  0  0  0  0  0  0  0
    0.9970   18.2730   -5.1120 Cl  0  0  0  0  0  0  0  0  0  0  0  0
   -3.4100   15.3360   -5.3180 Cl  0  0  0  0  0  0  0  0  0  0  0  0
   -0.3890   10.0210   -7.3370 C   0  0  0  0  0  0  0  0  0  0  0  0
   -1.8990   10.3380   -5.4880 C   0  0  0  0  0  0  0  0  0  0  0  0
   -1.0940   16.6640   -5.1550 C   0  0  0  0  0  0  0  0  0  0  0  0
   -1.2580    9.0660   -7.8750 C   0  0  0  0  0  0  0  0  0  0  0  0
   -2.7680    9.3840   -6.0260 C   0  0  0  0  0  0  0  0  0  0  0  0
   -2.4460    8.7480   -7.2200 C   0  0  0  0  0  0  0  0  0  0  0  0
  2  1  1  0
  2  3  1  0
  2  4  1  0
  2  5  1  0
  4  6  2  0
  4  7  1  0
  5  8  2  0
  5  9  1  0
  7 10  1  0
  8 11  1  0
  9 12  2  0
 12 13  1  0
 11 14  1  0
 10 15  2  0
 10 16  1  0
 11 17  2  0
 12 17  1  0
 15 18  1  0
 16 19  2  0
 18 20  2  0
 19 20  1  0
M  END
