mac-x0576-mac-x0190
     RDKit          3D

 18 20  0  0  0  0  0  0  0  0999 V2000
    0.1960   14.4710    1.6290 N   0  0  0  0  0  0  0  0  0  0  0  0
   -0.8790   14.5020    0.8630 C   0  0  0  0  0  0  0  0  0  0  0  0
   -1.9680   14.3540    1.4660 N   0  0  0  0  0  0  0  0  0  0  0  0
   -0.7610   14.6820   -0.4830 N   0  0  0  0  0  0  0  0  0  0  0  0
   -1.8630   14.8220   -1.2920 C   0  0  0  0  0  0  0  0  0  0  0  0
   -3.0930   14.3710    0.7210 C   0  0  0  0  0  0  0  0  0  0  0  0
   -1.7780   15.0710   -2.4900 O   0  0  0  0  0  0  0  0  0  0  0  0
   -3.1760   14.6220   -0.6010 C   0  0  0  0  0  0  0  0  0  0  0  0
   -4.2320   14.0880    1.3690 N   0  0  0  0  0  0  0  0  0  0  0  0
   -5.5000   14.5320    1.0170 C   0  0  1  0  0  0  0  0  0  0  0  0
   -4.4170   14.6680   -1.2790 N   0  0  0  0  0  0  0  0  0  0  0  0
   -5.7430   15.4410    2.0260 O   0  0  0  0  0  0  0  0  0  0  0  0
   -5.5890   15.1210   -0.4860 C   0  0  1  0  0  0  0  0  0  0  0  0
   -6.5820   13.6060    1.0840 N   0  0  0  0  0  0  0  0  0  0  0  0
   -7.5620   14.4730    0.5100 C   0  0  1  0  0  0  0  0  0  0  0  0
   -6.9950   14.7380   -0.8290 N   0  0  0  0  0  0  0  0  0  0  0  0
   -8.9740   13.8670    0.5740 C   0  0  0  0  0  0  0  0  0  0  0  0
   -9.5790   14.3500    1.7930 O   0  0  0  0  0  0  0  0  0  0  0  0
  1  2  1  0
  2  3  2  0
  2  4  1  0
  4  5  1  0
  3  6  1  0
  5  7  2  0
  5  8  1  0
  6  8  2  0
  6  9  1  0
  9 10  1  0
  8 11  1  0
 10 12  1  1
 10 13  1  0
 13 11  1  6
 10 14  1  0
 14 15  1  0
 13 16  1  0
 15 16  1  0
 15 17  1  6
 17 18  1  0
M  END
