mac-x0568-mac-x0182
     RDKit          3D

 24 26  0  0  0  0  0  0  0  0999 V2000
   -8.6320   14.6550    1.3250 C   0  0  0  0  0  0  0  0  0  0  0  0
   -7.2700   14.7030    0.7010 C   0  0  0  0  0  0  0  0  0  0  0  0
   -6.1420   14.6700    1.5100 C   0  0  0  0  0  0  0  0  0  0  0  0
   -7.2000   14.7820   -0.6460 N   0  0  0  0  0  0  0  0  0  0  0  0
   -5.9620   14.8230   -1.1970 C   0  0  0  0  0  0  0  0  0  0  0  0
   -4.8760   14.7130    0.9190 C   0  0  0  0  0  0  0  0  0  0  0  0
   -4.7810   14.7850   -0.4660 C   0  0  0  0  0  0  0  0  0  0  0  0
   -3.4650   14.8060   -1.1730 C   0  0  0  0  0  0  0  0  0  0  0  0
   -3.5240   14.7160   -2.4610 N   0  0  0  0  0  0  0  0  0  0  0  0
   -2.3280   14.8760   -0.4000 N   0  0  0  0  0  0  0  0  0  0  0  0
   -2.3070   14.6530   -3.2980 C   0  0  0  0  0  0  0  0  0  0  0  0
   -1.5060   13.3600   -3.0360 C   0  0  0  0  0  0  0  0  0  0  0  0
   -1.7820   12.2680   -3.9980 N   0  0  0  0  0  0  0  0  0  0  0  0
   -0.6890   11.2330   -4.2520 S   0  0  2  0  0  0  0  0  0  0  0  0
    0.0030   10.4200   -3.2790 O   0  0  0  0  0  0  0  0  0  0  0  0
    0.4900   12.0970   -5.0620 N   0  0  0  0  0  0  0  0  0  0  0  0
   -1.1020   10.2420   -5.6220 C   0  0  0  0  0  0  0  0  0  0  0  0
    0.7670   11.5680   -6.2850 C   0  0  0  0  0  0  0  0  0  0  0  0
   -0.2240   10.5330   -6.6590 C   0  0  0  0  0  0  0  0  0  0  0  0
   -2.1120    9.3050   -5.7300 C   0  0  0  0  0  0  0  0  0  0  0  0
    1.7070   11.8600   -6.9770 O   0  0  0  0  0  0  0  0  0  0  0  0
   -2.2310    8.6370   -6.9520 C   0  0  0  0  0  0  0  0  0  0  0  0
   -0.3330    9.8750   -7.8760 C   0  0  0  0  0  0  0  0  0  0  0  0
   -1.3480    8.9200   -8.0170 C   0  0  0  0  0  0  0  0  0  0  0  0
  1  2  1  0
  2  3  2  0
  2  4  1  0
  4  5  2  0
  3  6  1  0
  5  7  1  0
  6  7  2  0
  7  8  1  0
  8  9  2  3
  8 10  1  0
  9 11  1  0
 11 12  1  0
 12 13  1  0
 13 14  2  0
 14 15  2  0
 14 16  1  6
 14 17  1  0
 16 18  1  0
 17 19  2  0
 18 19  1  0
 17 20  1  0
 18 21  2  0
 20 22  2  0
 19 23  1  0
 22 24  1  0
 23 24  2  0
M  END
