mac-x0206-diamond-x0766_0_A
     RDKit          3D

 23 25  0  0  0  0  0  0  0  0999 V2000
   -3.3200   15.8030    0.6810 N   0  0  0  0  0  0  0  0  0  0  0  0
   -4.2310   15.3310   -0.3260 C   0  0  2  0  0  0  0  0  0  0  0  0
   -4.5980   16.4080   -1.1110 O   0  0  0  0  0  0  0  0  0  0  0  0
   -5.5750   14.9190    0.2250 C   0  0  0  0  0  0  0  0  0  0  0  0
   -3.4130   14.7400   -1.4060 C   0  0  0  0  0  0  0  0  0  0  0  0
   -6.7180   14.5920   -0.5220 C   0  0  0  0  0  0  0  0  0  0  0  0
   -5.6930   14.9000    1.6090 C   0  0  0  0  0  0  0  0  0  0  0  0
   -2.0480   14.8080   -1.5390 C   0  0  0  0  0  0  0  0  0  0  0  0
   -4.1400   13.9240   -2.6990 S   0  0  0  0  0  0  0  0  0  0  0  0
   -6.6660   14.6030   -1.8920 O   0  0  0  0  0  0  0  0  0  0  0  0
   -7.9200   14.2600    0.1110 C   0  0  0  0  0  0  0  0  0  0  0  0
   -6.8810   14.5720    2.2500 C   0  0  0  0  0  0  0  0  0  0  0  0
   -2.6280   13.6920   -3.4440 C   0  0  0  0  0  0  0  0  0  0  0  0
   -1.5780   14.2190   -2.7250 C   0  0  0  0  0  0  0  0  0  0  0  0
   -7.9970   14.2520    1.5010 C   0  0  0  0  0  0  0  0  0  0  0  0
   -0.1230   14.2300   -3.0670 C   0  0  1  0  0  0  0  0  0  0  0  0
    0.3000   13.0410   -3.9100 C   0  0  2  0  0  0  0  0  0  0  0  0
    0.3410   15.4650   -3.8220 C   0  0  0  0  0  0  0  0  0  0  0  0
    0.7000   12.0210   -2.8990 C   0  0  0  0  0  0  0  0  0  0  0  0
    1.4580   13.5400   -4.7990 C   0  0  0  0  0  0  0  0  0  0  0  0
    1.6240   15.0330   -4.4910 C   0  0  0  0  0  0  0  0  0  0  0  0
    1.4760   12.2040   -1.9940 O   0  0  0  0  0  0  0  0  0  0  0  0
    0.0840   10.8340   -3.0500 O   0  0  0  0  0  0  0  0  0  0  0  0
  2  1  1  1
  2  3  1  0
  2  4  1  0
  2  5  1  0
  4  6  2  0
  4  7  1  0
  5  8  2  0
  5  9  1  0
  6 10  1  0
  6 11  1  0
  7 12  2  0
  9 13  1  0
  8 14  1  0
 13 14  2  0
 11 15  2  0
 12 15  1  0
 16 14  1  6
 16 17  1  0
 16 18  1  0
 17 19  1  1
 17 20  1  0
 18 21  1  0
 20 21  1  0
 19 22  2  0
 19 23  1  0
M  END
