mac-x0385-mac-x0354
     RDKit          3D

 27 29  0  0  0  0  0  0  0  0999 V2000
   -5.3680   15.4710   -0.9620 C   0  0  0  0  0  0  0  0  0  0  0  0
   -4.0000   15.2950   -0.4070 C   0  0  0  0  0  0  0  0  0  0  0  0
   -2.9300   15.0280   -1.2240 C   0  0  0  0  0  0  0  0  0  0  0  0
   -3.7060   15.3840    0.9390 C   0  0  0  0  0  0  0  0  0  0  0  0
   -4.6740   15.6410    1.8910 N   0  0  0  0  0  0  0  0  0  0  0  0
   -2.4940   15.2380    1.4380 N   0  0  0  0  0  0  0  0  0  0  0  0
   -1.6880   14.8760   -0.7590 N   0  0  0  0  0  0  0  0  0  0  0  0
   -1.5500   15.0020    0.5720 C   0  0  0  0  0  0  0  0  0  0  0  0
   -0.2150   14.8500    1.1080 C   0  0  0  0  0  0  0  0  0  0  0  0
    0.1200   13.5740    0.5320 C   0  0  0  0  0  0  0  0  0  0  0  0
    0.7550   13.7050   -0.8270 C   0  0  0  0  0  0  0  0  0  0  0  0
    0.3160   12.5260   -1.6320 C   0  0  0  0  0  0  0  0  0  0  0  0
    0.6560   12.7220   -2.9620 N   0  0  0  0  0  0  0  0  0  0  0  0
    0.5460   11.7530   -3.7010 C   0  0  0  0  0  0  0  0  0  0  0  0
    0.1230   10.5870   -3.1580 O   0  0  0  0  0  0  0  0  0  0  0  0
    0.8500   11.7770   -5.0510 C   0  0  0  0  0  0  0  0  0  0  0  0
    1.8460   12.5340   -5.6390 C   0  0  0  0  0  0  0  0  0  0  0  0
    0.2570   11.0740   -6.0650 C   0  0  0  0  0  0  0  0  0  0  0  0
    0.9180   11.4430   -7.1780 N   0  0  0  0  0  0  0  0  0  0  0  0
    1.8860   12.3300   -6.9200 N   0  0  0  0  0  0  0  0  0  0  0  0
   -0.8240   10.1280   -6.0540 C   0  0  0  0  0  0  0  0  0  0  0  0
    0.6670   10.9810   -8.5240 C   0  0  0  0  0  0  0  0  0  0  0  0
   -0.6190    8.8520   -6.5770 C   0  0  0  0  0  0  0  0  0  0  0  0
   -2.0620   10.4830   -5.5270 C   0  0  0  0  0  0  0  0  0  0  0  0
   -1.6580    7.9290   -6.5720 C   0  0  0  0  0  0  0  0  0  0  0  0
   -3.1010    9.5600   -5.5230 C   0  0  0  0  0  0  0  0  0  0  0  0
   -2.9010    8.2840   -6.0440 C   0  0  0  0  0  0  0  0  0  0  0  0
  1  2  1  0
  2  3  2  0
  2  4  1  0
  4  5  1  0
  4  6  2  0
  3  7  1  0
  6  8  1  0
  7  8  2  0
  8  9  1  0
  9 10  1  0
 10 11  1  0
 11 12  1  0
 12 13  1  0
 13 14  2  3
 14 15  1  0
 14 16  1  0
 16 17  1  0
 16 18  2  0
 18 19  1  0
 17 20  2  0
 19 20  1  0
 18 21  1  0
 19 22  1  0
 21 23  2  0
 21 24  1  0
 23 25  1  0
 24 26  2  0
 25 27  2  0
 26 27  1  0
M  END
