mac-x0159-mac-x0385
     RDKit          3D

 19 21  0  0  0  0  0  0  0  0999 V2000
   -4.4450   15.2910    1.1200 N   0  0  0  0  0  0  0  0  0  0  0  0
   -3.4490   15.4110    0.0670 C   0  0  1  0  0  0  0  0  0  0  0  0
   -2.2880   14.4830    0.3120 C   0  0  1  0  0  0  0  0  0  0  0  0
   -4.0080   14.9320   -1.1720 N   0  0  0  0  0  0  0  0  0  0  0  0
   -5.3140   15.5380   -1.4310 C   0  0  0  0  0  0  0  0  0  0  0  0
   -3.0880   15.0850   -2.3260 C   0  0  0  0  0  0  0  0  0  0  0  0
   -1.2020   14.8830   -0.6400 C   0  0  2  0  0  0  0  0  0  0  0  0
   -1.5540   14.4480    1.5770 N   0  0  0  0  0  0  0  0  0  0  0  0
   -0.3950   16.0380   -0.0830 C   0  0  0  0  0  0  0  0  0  0  0  0
   -1.6240   15.1780   -2.0280 N   0  0  0  0  0  0  0  0  0  0  0  0
   -0.2960   13.8100   -0.3390 N   0  0  0  0  0  0  0  0  0  0  0  0
   -0.2130   14.0530    1.1170 C   0  0  0  0  0  0  0  0  0  0  0  0
   -0.7660   14.7460   -3.1550 C   0  0  0  0  0  0  0  0  0  0  0  0
   -0.3750   15.9480   -3.9990 C   0  0  0  0  0  0  0  0  0  0  0  0
    0.9060   16.4400   -4.1750 C   0  0  0  0  0  0  0  0  0  0  0  0
   -1.3550   16.6630   -4.6880 N   0  0  0  0  0  0  0  0  0  0  0  0
   -0.8090   17.6600   -5.3530 C   0  0  0  0  0  0  0  0  0  0  0  0
    0.8840   17.8100   -5.2040 S   0  0  0  0  0  0  0  0  0  0  0  0
   -1.5530   18.6280   -6.2010 C   0  0  0  0  0  0  0  0  0  0  0  0
  2  1  1  1
  2  3  1  0
  2  4  1  0
  4  5  1  0
  4  6  1  0
  3  7  1  0
  3  8  1  1
  7  9  1  1
  6 10  1  0
  7 10  1  0
  7 11  1  0
  8 12  1  0
 11 12  1  0
 10 13  1  0
 13 14  1  0
 14 15  2  0
 14 16  1  0
 16 17  2  0
 15 18  1  0
 17 18  1  0
 17 19  1  0
M  END
