mac-x0138-mac-x0564
     RDKit          3D

 20 22  0  0  0  0  0  0  0  0999 V2000
   -1.2330   16.1800   -3.1230 C   0  0  0  0  0  0  0  0  0  0  0  0
   -1.9940   14.9430   -2.5990 C   0  0  2  0  0  0  0  0  0  0  0  0
   -3.4040   15.3680   -1.9660 C   0  0  2  0  0  0  0  0  0  0  0  0
   -1.1040   14.2700   -1.5380 C   0  0  2  0  0  0  0  0  0  0  0  0
   -2.1150   14.0400   -3.7760 N   0  0  0  0  0  0  0  0  0  0  0  0
   -3.7860   14.7670   -0.5350 C   0  0  1  0  0  0  0  0  0  0  0  0
   -0.6770   15.1900   -0.4790 N   0  0  0  0  0  0  0  0  0  0  0  0
    0.2100   13.8720   -2.2190 C   0  0  0  0  0  0  0  0  0  0  0  0
   -0.8560   13.8530   -4.4800 C   0  0  0  0  0  0  0  0  0  0  0  0
   -4.5670   15.2580   -2.9410 C   0  0  0  0  0  0  0  0  0  0  0  0
    1.2080   13.6020   -1.5590 O   0  0  0  0  0  0  0  0  0  0  0  0
   -3.0790   15.4070    0.6980 C   0  0  1  0  0  0  0  0  0  0  0  0
   -0.6900   14.7820    0.8730 C   0  0  2  0  0  0  0  0  0  0  0  0
    0.2660   13.8390   -3.5850 N   0  0  0  0  0  0  0  0  0  0  0  0
   -5.8430   15.1710   -2.5500 C   0  0  0  0  0  0  0  0  0  0  0  0
   -5.2610   14.9690   -0.2410 C   0  0  0  0  0  0  0  0  0  0  0  0
   -4.0320   15.7180    1.7640 N   0  0  0  0  0  0  0  0  0  0  0  0
    0.0230   13.6210    1.1990 N   0  0  0  0  0  0  0  0  0  0  0  0
   -2.0050   14.7610    1.3860 N   0  0  0  0  0  0  0  0  0  0  0  0
   -6.1910   15.1630   -1.1680 C   0  0  0  0  0  0  0  0  0  0  0  0
  2  1  1  6
  2  3  1  0
  2  4  1  0
  2  5  1  0
  3  6  1  0
  4  7  1  1
  4  8  1  0
  5  9  1  0
  3 10  1  6
  8 11  2  0
  6 12  1  0
  7 13  1  0
  8 14  1  0
  9 14  1  0
 10 15  2  0
  6 16  1  1
 12 17  1  1
 13 18  1  6
 12 19  1  0
 13 19  1  0
 15 20  1  0
 16 20  2  0
M  END
