mac-x0115-mac-x0360
     RDKit          3D

 28 30  0  0  0  0  0  0  0  0999 V2000
   -1.4100   18.5860   -5.1370 C   0  0  0  0  0  0  0  0  0  0  0  0
   -0.3930   17.6680   -5.7830 C   0  0  0  0  0  0  0  0  0  0  0  0
    1.0190   18.1950   -5.6050 C   0  0  0  0  0  0  0  0  0  0  0  0
   -0.5440   16.3870   -5.1620 O   0  0  0  0  0  0  0  0  0  0  0  0
    0.6920   15.7840   -4.7540 C   0  0  0  0  0  0  0  0  0  0  0  0
    0.3580   14.4670   -4.0410 C   0  0  0  0  0  0  0  0  0  0  0  0
    0.1000   14.6120   -2.5840 N   0  0  0  0  0  0  0  0  0  0  0  0
    1.0880   14.3210   -1.6650 C   0  0  0  0  0  0  0  0  0  0  0  0
   -0.9050   15.5950   -2.1710 C   0  0  2  0  0  0  0  0  0  0  0  0
    2.6750   13.8980   -1.9940 S   0  0  0  0  0  0  0  0  0  0  0  0
    0.7180   14.4000   -0.3470 N   0  0  0  0  0  0  0  0  0  0  0  0
   -1.4740   15.3890   -0.7680 C   0  0  2  0  0  0  0  0  0  0  0  0
   -2.1580   15.5130   -3.0020 C   0  0  0  0  0  0  0  0  0  0  0  0
   -0.4850   14.7930    0.1810 C   0  0  0  0  0  0  0  0  0  0  0  0
   -2.7750   14.7440   -1.0350 N   0  0  0  0  0  0  0  0  0  0  0  0
   -3.2050   15.0380   -2.3450 C   0  0  0  0  0  0  0  0  0  0  0  0
   -0.7360   14.6630    1.3860 O   0  0  0  0  0  0  0  0  0  0  0  0
   -4.0160   14.8090    0.0570 S   0  0  0  0  0  0  0  0  0  0  0  0
   -4.8820   15.8840   -0.3720 O   0  0  0  0  0  0  0  0  0  0  0  0
   -3.4120   14.7920    1.3650 O   0  0  0  0  0  0  0  0  0  0  0  0
   -4.8760   13.2770   -0.1760 C   0  0  0  0  0  0  0  0  0  0  0  0
   -4.5570   12.4140   -1.2420 C   0  0  0  0  0  0  0  0  0  0  0  0
   -5.8830   12.9510    0.7260 C   0  0  0  0  0  0  0  0  0  0  0  0
   -5.2790   11.2270   -1.3820 C   0  0  0  0  0  0  0  0  0  0  0  0
   -6.5850   11.7680    0.5660 C   0  0  0  0  0  0  0  0  0  0  0  0
   -7.8310   11.3740    1.6830 Cl  0  0  0  0  0  0  0  0  0  0  0  0
   -4.9220   10.1390   -2.6730 Cl  0  0  0  0  0  0  0  0  0  0  0  0
   -6.2940   10.9010   -0.4850 C   0  0  0  0  0  0  0  0  0  0  0  0
  1  2  1  0
  2  3  1  0
  2  4  1  0
  4  5  1  0
  5  6  1  0
  6  7  1  0
  7  8  1  0
  7  9  1  0
  8 10  2  0
  8 11  1  0
  9 12  1  0
  9 13  1  6
 11 14  1  0
 12 14  1  1
 12 15  1  0
 13 16  2  0
 15 16  1  0
 14 17  2  0
 15 18  1  0
 18 19  2  0
 18 20  2  0
 18 21  1  0
 21 22  2  0
 21 23  1  0
 22 24  1  0
 23 25  2  0
 25 26  1  0
 24 27  1  0
 24 28  2  0
 25 28  1  0
M  END
