mac-x0328-mac-x0365
     RDKit          3D

 10 10  0  0  0  0  0  0  0  0999 V2000
   -1.8620   14.7600   -3.8330 O   0  0  0  0  0  0  0  0  0  0  0  0
   -1.9170   14.7500   -2.4840 C   0  0  0  0  0  0  0  0  0  0  0  0
   -0.9370   14.6390   -1.7710 O   0  0  0  0  0  0  0  0  0  0  0  0
   -3.2930   14.8890   -1.9420 C   0  0  0  0  0  0  0  0  0  0  0  0
   -3.4660   14.8370   -0.5560 C   0  0  0  0  0  0  0  0  0  0  0  0
   -4.3990   15.0670   -2.7840 C   0  0  0  0  0  0  0  0  0  0  0  0
   -4.7430   14.9550   -0.0060 C   0  0  0  0  0  0  0  0  0  0  0  0
   -5.6750   15.1860   -2.2280 C   0  0  0  0  0  0  0  0  0  0  0  0
   -5.8350   15.1260   -0.8490 C   0  0  0  0  0  0  0  0  0  0  0  0
   -7.0990   15.2400   -0.3530 O   0  0  0  0  0  0  0  0  0  0  0  0
  1  2  1  0
  2  3  2  0
  2  4  1  0
  4  5  2  0
  4  6  1  0
  5  7  1  0
  6  8  2  0
  7  9  2  0
  8  9  1  0
  9 10  1  0
M  END
