mac-x0387-mac-x0204
     RDKit          3D

 21 23  0  0  0  0  0  0  0  0999 V2000
   -3.8220   15.3870    1.9050 N   0  0  0  0  0  0  0  0  0  0  0  0
   -2.6240   14.9970    1.3050 C   0  0  0  0  0  0  0  0  0  0  0  0
   -1.6060   14.6970    2.1100 N   0  0  0  0  0  0  0  0  0  0  0  0
   -2.5380   14.9410   -0.0620 C   0  0  0  0  0  0  0  0  0  0  0  0
   -1.3020   14.5610   -0.6470 C   0  0  0  0  0  0  0  0  0  0  0  0
   -0.4340   14.3370    1.5590 C   0  0  0  0  0  0  0  0  0  0  0  0
   -3.6630   15.2640   -0.8410 C   0  0  0  0  0  0  0  0  0  0  0  0
   -0.2330   14.2590    0.2070 C   0  0  0  0  0  0  0  0  0  0  0  0
   -1.2620   14.5240   -2.0450 C   0  0  0  0  0  0  0  0  0  0  0  0
   -3.6120   15.2200   -2.2040 C   0  0  0  0  0  0  0  0  0  0  0  0
   -0.1040   14.1550   -2.9360 C   0  0  0  0  0  0  0  0  0  0  0  0
   -2.4270   14.8540   -2.7900 C   0  0  0  0  0  0  0  0  0  0  0  0
    0.5660   12.9740   -2.5230 O   0  0  0  0  0  0  0  0  0  0  0  0
    0.8520   15.2000   -3.0860 O   0  0  0  0  0  0  0  0  0  0  0  0
   -1.0280   14.0360   -4.0980 C   0  0  0  0  0  0  0  0  0  0  0  0
   -1.5710   15.2080   -4.6400 C   0  0  0  0  0  0  0  0  0  0  0  0
   -1.4170   12.8200   -4.6420 C   0  0  0  0  0  0  0  0  0  0  0  0
   -2.4740   15.1230   -5.6730 C   0  0  0  0  0  0  0  0  0  0  0  0
   -2.2970   12.7060   -5.6610 N   0  0  0  0  0  0  0  0  0  0  0  0
   -3.0380   16.2360   -6.2250 O   0  0  0  0  0  0  0  0  0  0  0  0
   -2.8090   13.8630   -6.1510 C   0  0  0  0  0  0  0  0  0  0  0  0
  1  2  1  0
  2  3  2  0
  2  4  1  0
  4  5  2  0
  3  6  1  0
  4  7  1  0
  5  8  1  0
  6  8  2  0
  5  9  1  0
  7 10  2  0
  9 11  1  0
  9 12  2  0
 10 12  1  0
 11 13  1  0
 11 14  1  0
 11 15  1  0
 15 16  2  0
 15 17  1  0
 16 18  1  0
 17 19  2  0
 18 20  1  0
 18 21  2  0
 19 21  1  0
M  END
