mac-x0567-mac-x0587
     RDKit          3D

 19 20  0  0  0  0  0  0  0  0999 V2000
   -0.0650   13.8570    1.0260 N   0  0  0  0  0  0  0  0  0  0  0  0
   -1.3340   14.2830    0.8800 C   0  0  0  0  0  0  0  0  0  0  0  0
   -2.1700   14.4510    1.9220 N   0  0  0  0  0  0  0  0  0  0  0  0
   -2.1070   14.6260   -0.1720 C   0  0  0  0  0  0  0  0  0  0  0  0
   -3.4020   14.8860    1.6350 N   0  0  0  0  0  0  0  0  0  0  0  0
   -3.4030   15.0050    0.3150 C   0  0  0  0  0  0  0  0  0  0  0  0
   -1.6890   14.6010   -1.4620 C   0  0  0  0  0  0  0  0  0  0  0  0
   -4.4220   15.4120   -0.5660 C   0  0  0  0  0  0  0  0  0  0  0  0
   -2.6860   14.9960   -2.3420 C   0  0  0  0  0  0  0  0  0  0  0  0
   -2.2580   14.9820   -3.7630 C   0  0  0  0  0  0  0  0  0  0  0  0
   -4.0140   15.3910   -1.9250 C   0  0  0  0  0  0  0  0  0  0  0  0
   -0.7470   14.7220   -3.9870 C   0  0  2  0  0  0  0  0  0  0  0  0
   -3.0900   15.1660   -4.6440 O   0  0  0  0  0  0  0  0  0  0  0  0
   -0.0480   16.0490   -4.3100 C   0  0  0  0  0  0  0  0  0  0  0  0
   -0.3290   13.5480   -5.3450 S   0  0  0  0  0  0  0  0  0  0  0  0
   -0.2230   11.8640   -4.6210 C   0  0  0  0  0  0  0  0  0  0  0  0
    0.5270   11.6720   -3.3190 C   0  0  0  0  0  0  0  0  0  0  0  0
    0.5940   10.6480   -2.6630 O   0  0  0  0  0  0  0  0  0  0  0  0
    1.1780   12.7720   -2.8850 O   0  0  0  0  0  0  0  0  0  0  0  0
  1  2  1  0
  2  3  1  0
  2  4  2  0
  3  5  1  0
  4  6  1  0
  5  6  2  0
  4  7  1  0
  6  8  1  0
  7  9  2  0
  9 10  1  0
  8 11  2  0
  9 11  1  0
 10 12  1  0
 10 13  2  0
 12 14  1  6
 12 15  1  0
 15 16  1  0
 16 17  1  0
 17 18  2  0
 17 19  1  0
M  END
