mac-x0381-mac-x0472
     RDKit          3D

 30 33  0  0  0  0  0  0  0  0999 V2000
   -8.0450   13.7260    4.2330 N   0  0  0  0  0  0  0  0  0  0  0  0
   -8.3220   14.7660    3.3690 C   0  0  0  0  0  0  0  0  0  0  0  0
   -7.5030   15.3850    2.6060 N   0  0  0  0  0  0  0  0  0  0  0  0
   -9.6890   15.2610    3.1970 C   0  0  0  0  0  0  0  0  0  0  0  0
   -6.1720   14.9300    2.6480 C   0  0  0  0  0  0  0  0  0  0  0  0
   -9.8570   16.0380    2.0650 C   0  0  0  0  0  0  0  0  0  0  0  0
  -10.7460   14.9920    4.0600 C   0  0  0  0  0  0  0  0  0  0  0  0
   -4.7840   15.7420    2.5810 C   0  0  0  0  0  0  0  0  0  0  0  0
  -11.0870   16.5670    1.7500 C   0  0  0  0  0  0  0  0  0  0  0  0
  -12.0020   15.5200    3.7540 C   0  0  0  0  0  0  0  0  0  0  0  0
  -12.1850   16.3070    2.5980 C   0  0  0  0  0  0  0  0  0  0  0  0
  -11.2360   17.3470    0.6040 C   0  0  0  0  0  0  0  0  0  0  0  0
   -3.8000   15.2690    1.5880 C   0  0  0  0  0  0  0  0  0  0  0  0
  -13.4290   16.8450    2.2560 C   0  0  0  0  0  0  0  0  0  0  0  0
  -12.4810   17.8760    0.2800 C   0  0  0  0  0  0  0  0  0  0  0  0
   -4.1360   15.4030   -0.0800 S   0  0  0  0  0  0  0  0  0  0  0  0
   -2.6260   14.7400    1.8730 N   0  0  0  0  0  0  0  0  0  0  0  0
  -13.5740   17.6230    1.1050 C   0  0  0  0  0  0  0  0  0  0  0  0
   -1.9210   14.4140    0.7450 N   0  0  0  0  0  0  0  0  0  0  0  0
   -2.6060   14.7110   -0.3300 C   0  0  0  0  0  0  0  0  0  0  0  0
   -2.1130   14.4770   -1.6540 N   0  0  0  0  0  0  0  0  0  0  0  0
   -3.3880   14.3720   -2.7420 S   0  0  0  0  0  0  0  0  0  0  0  0
   -4.3760   15.3990   -2.5080 O   0  0  0  0  0  0  0  0  0  0  0  0
   -2.7540   14.2740   -4.0400 O   0  0  0  0  0  0  0  0  0  0  0  0
   -4.0920   12.7860   -2.3500 C   0  0  0  0  0  0  0  0  0  0  0  0
   -3.4020   11.6170   -2.6830 C   0  0  0  0  0  0  0  0  0  0  0  0
   -5.3390   12.7180   -1.7120 C   0  0  0  0  0  0  0  0  0  0  0  0
   -3.9590   10.3770   -2.3820 C   0  0  0  0  0  0  0  0  0  0  0  0
   -5.8880   11.4710   -1.4130 C   0  0  0  0  0  0  0  0  0  0  0  0
   -5.2030   10.3070   -1.7480 C   0  0  0  0  0  0  0  0  0  0  0  0
  1  2  1  0
  2  3  2  3
  2  4  1  0
  3  5  1  0
  4  6  2  0
  4  7  1  0
  5  8  1  0
  6  9  1  0
  7 10  2  0
  9 11  2  0
 10 11  1  0
  9 12  1  0
  8 13  1  0
 11 14  1  0
 12 15  2  0
 13 16  1  0
 13 17  2  0
 14 18  2  0
 15 18  1  0
 17 19  1  0
 16 20  1  0
 19 20  2  0
 20 21  1  0
 22 21  1  0
 22 23  2  0
 22 24  2  0
 22 25  1  0
 25 26  2  0
 25 27  1  0
 26 28  1  0
 27 29  2  0
 28 30  2  0
 29 30  1  0
M  END
