mac-x0188-mac-x0116
     RDKit          3D

 26 29  0  0  0  0  0  0  0  0999 V2000
    1.1810   12.7620   -4.9450 C   0  0  0  0  0  0  0  0  0  0  0  0
   -0.0050   13.4170   -4.3470 C   0  0  0  0  0  0  0  0  0  0  0  0
   -1.1180   13.4530   -5.1160 O   0  0  0  0  0  0  0  0  0  0  0  0
   -0.2520   14.0390   -3.1310 C   0  0  0  0  0  0  0  0  0  0  0  0
    0.7300   14.1740   -2.0880 C   0  0  0  0  0  0  0  0  0  0  0  0
   -2.1210   14.1000   -4.4310 N   0  0  0  0  0  0  0  0  0  0  0  0
   -1.6180   14.4710   -3.2320 C   0  0  0  0  0  0  0  0  0  0  0  0
    1.3430   15.1890   -1.8600 O   0  0  0  0  0  0  0  0  0  0  0  0
    0.9830   13.0870   -1.3180 O   0  0  0  0  0  0  0  0  0  0  0  0
   -2.5240   15.2530   -2.2620 C   0  0  1  0  0  0  0  0  0  0  0  0
   -3.8640   15.4040   -2.9700 C   0  0  0  0  0  0  0  0  0  0  0  0
   -2.6390   14.9170   -0.6830 C   0  0  1  0  0  0  0  0  0  0  0  0
   -5.0490   15.1080   -2.4430 C   0  0  0  0  0  0  0  0  0  0  0  0
   -4.1230   15.1360   -0.1370 C   0  0  2  0  0  0  0  0  0  0  0  0
   -1.9050   13.6340   -0.3380 N   0  0  0  0  0  0  0  0  0  0  0  0
   -1.9050   15.8550    0.2590 C   0  0  0  0  0  0  0  0  0  0  0  0
   -4.4030   14.8030    1.2670 N   0  0  0  0  0  0  0  0  0  0  0  0
   -5.1820   14.5800   -1.0740 C   0  0  0  0  0  0  0  0  0  0  0  0
   -1.3940   15.0260    1.3430 N   0  0  0  0  0  0  0  0  0  0  0  0
   -0.8210   13.9840    0.5730 C   0  0  0  0  0  0  0  0  0  0  0  0
   -4.2950   13.3900    1.5390 C   0  0  0  0  0  0  0  0  0  0  0  0
   -5.5600   12.6040    1.5840 C   0  0  0  0  0  0  0  0  0  0  0  0
   -6.0460   12.2130    0.3720 O   0  0  0  0  0  0  0  0  0  0  0  0
   -6.3870   12.1390    2.5870 C   0  0  0  0  0  0  0  0  0  0  0  0
   -7.4190   11.4260    1.9590 C   0  0  0  0  0  0  0  0  0  0  0  0
   -7.1680   11.4980    0.6140 C   0  0  0  0  0  0  0  0  0  0  0  0
  1  2  1  0
  2  3  1  0
  2  4  2  0
  4  5  1  0
  3  6  1  0
  4  7  1  0
  6  7  2  0
  5  8  2  0
  5  9  1  0
 10  7  1  6
 10 11  1  0
 10 12  1  0
 11 13  2  0
 12 14  1  0
 12 15  1  0
 12 16  1  1
 14 17  1  1
 13 18  1  0
 14 18  1  0
 16 19  1  0
 15 20  1  0
 19 20  1  0
 17 21  1  0
 21 22  1  0
 22 23  1  0
 22 24  2  0
 24 25  1  0
 23 26  1  0
 25 26  2  0
M  END
