mac-x0453-mac-x0115
     RDKit          3D

 21 22  0  0  0  0  0  0  0  0999 V2000
   -6.8870   13.4590    2.1740 N   0  0  0  0  0  0  0  0  0  0  0  0
   -5.7910   13.3630    1.2040 C   0  0  0  0  0  0  0  0  0  0  0  0
   -5.4040   14.7410    0.6700 C   0  0  0  0  0  0  0  0  0  0  0  0
   -4.1100   14.8340   -0.0760 C   0  0  0  0  0  0  0  0  0  0  0  0
   -3.0260   14.0530    0.0280 C   0  0  0  0  0  0  0  0  0  0  0  0
   -3.9550   15.8270   -0.9860 N   0  0  0  0  0  0  0  0  0  0  0  0
   -1.9160   14.5690   -0.8560 C   0  0  1  0  0  0  0  0  0  0  0  0
   -2.7430   15.6940   -1.4240 C   0  0  0  0  0  0  0  0  0  0  0  0
   -0.7470   14.8970    0.0780 C   0  0  0  0  0  0  0  0  0  0  0  0
   -1.4030   13.7550   -2.0300 C   0  0  0  0  0  0  0  0  0  0  0  0
   -0.9170   15.2790    1.2290 O   0  0  0  0  0  0  0  0  0  0  0  0
   -0.1330   14.3060   -2.5610 N   0  0  0  0  0  0  0  0  0  0  0  0
    0.5460   14.7030   -0.3940 N   0  0  0  0  0  0  0  0  0  0  0  0
    0.0790   14.2730   -4.0320 C   0  0  0  0  0  0  0  0  0  0  0  0
    0.9170   14.3550   -1.6660 C   0  0  0  0  0  0  0  0  0  0  0  0
    0.4730   15.6360   -4.6440 C   0  0  0  0  0  0  0  0  0  0  0  0
    2.5300   14.0300   -1.9700 S   0  0  0  0  0  0  0  0  0  0  0  0
   -0.6630   16.3290   -5.1780 O   0  0  0  0  0  0  0  0  0  0  0  0
   -0.4350   17.6120   -5.7780 C   0  0  0  0  0  0  0  0  0  0  0  0
   -1.4260   18.6150   -5.2310 C   0  0  0  0  0  0  0  0  0  0  0  0
    0.9910   18.0310   -5.4750 C   0  0  0  0  0  0  0  0  0  0  0  0
  1  2  1  0
  2  3  1  0
  3  4  1  0
  4  5  2  0
  4  6  1  0
  7  5  1  1
  6  8  2  0
  7  8  1  0
  7  9  1  0
  7 10  1  0
  9 11  2  0
 10 12  1  0
  9 13  1  0
 12 14  1  0
 12 15  1  0
 13 15  1  0
 14 16  1  0
 15 17  2  0
 16 18  1  0
 18 19  1  0
 19 20  1  0
 19 21  1  0
M  END
