mac-x0321-diamond-x0471_0_A
     RDKit          3D

 21 22  0  0  0  0  0  0  0  0999 V2000
   -4.3190   15.7620    1.6870 Cl  0  0  0  0  0  0  0  0  0  0  0  0
   -4.3220   14.7550    0.2820 C   0  0  2  0  0  0  0  0  0  0  0  0
   -3.2430   15.1670   -0.6210 C   0  0  0  0  0  0  0  0  0  0  0  0
   -5.6600   14.5670   -0.4390 C   0  0  2  0  0  0  0  0  0  0  0  0
   -3.2680   14.4170   -1.8900 C   0  0  2  0  0  0  0  0  0  0  0  0
   -5.6120   15.0000   -1.8970 C   0  0  0  0  0  0  0  0  0  0  0  0
   -6.8450   15.0730    0.2380 N   0  0  0  0  0  0  0  0  0  0  0  0
   -5.8210   13.1110   -0.2760 C   0  0  0  0  0  0  0  0  0  0  0  0
   -2.0490   14.6040   -2.7420 C   0  0  0  0  0  0  0  0  0  0  0  0
   -4.4650   14.9050   -2.5630 C   0  0  0  0  0  0  0  0  0  0  0  0
   -7.7170   13.9490    0.3370 C   0  0  1  0  0  0  0  0  0  0  0  0
   -6.8220   12.9670    0.7500 N   0  0  0  0  0  0  0  0  0  0  0  0
   -0.7640   14.6070   -2.1730 O   0  0  0  0  0  0  0  0  0  0  0  0
   -2.1190   14.7570   -3.9860 O   0  0  0  0  0  0  0  0  0  0  0  0
   -8.9390   13.9950    1.2970 C   0  0  0  0  0  0  0  0  0  0  0  0
   -8.8660   14.6130    2.5120 N   0  0  0  0  0  0  0  0  0  0  0  0
   -8.8830   15.2490    3.7160 C   0  0  0  0  0  0  0  0  0  0  0  0
   -9.1810   16.4580    3.9740 O   0  0  0  0  0  0  0  0  0  0  0  0
   -8.5540   14.4720    4.9940 C   0  0  0  0  0  0  0  0  0  0  0  0
   -9.7650   13.6450    5.3480 C   0  0  0  0  0  0  0  0  0  0  0  0
   -8.1390   15.4250    6.0760 C   0  0  0  0  0  0  0  0  0  0  0  0
  2  1  1  1
  2  3  1  0
  2  4  1  0
  3  5  1  0
  4  6  1  6
  4  7  1  0
  4  8  1  0
  5  9  1  6
  5 10  1  0
  6 10  2  0
  7 11  1  0
  8 12  1  0
 11 12  1  0
  9 13  1  0
  9 14  2  0
 11 15  1  1
 15 16  1  0
 16 17  1  0
 17 18  2  0
 17 19  1  0
 19 20  1  0
 19 21  1  0
M  END
