mac-x0576-mac-x0321
     RDKit          3D

 15 16  0  0  0  0  0  0  0  0999 V2000
    0.0670   14.0840    1.9510 N   0  0  0  0  0  0  0  0  0  0  0  0
   -0.9770   14.3120    1.1310 C   0  0  0  0  0  0  0  0  0  0  0  0
   -2.1090   14.5570    1.6630 N   0  0  0  0  0  0  0  0  0  0  0  0
   -0.7510   14.2640   -0.2070 N   0  0  0  0  0  0  0  0  0  0  0  0
   -1.7550   14.6250   -1.0970 C   0  0  0  0  0  0  0  0  0  0  0  0
   -3.1830   14.7770    0.8350 C   0  0  0  0  0  0  0  0  0  0  0  0
   -1.3850   14.6900   -2.5400 C   0  0  0  0  0  0  0  0  0  0  0  0
   -2.9950   14.9060   -0.6670 C   0  0  0  0  0  0  0  0  0  0  0  0
   -4.3220   14.8420    1.4140 N   0  0  0  0  0  0  0  0  0  0  0  0
   -0.0440   14.5990   -2.6340 O   0  0  0  0  0  0  0  0  0  0  0  0
   -2.0590   14.7920   -3.5490 O   0  0  0  0  0  0  0  0  0  0  0  0
   -5.3890   15.0180    0.5960 C   0  0  0  0  0  0  0  0  0  0  0  0
   -4.0540   15.2900   -1.4580 N   0  0  0  0  0  0  0  0  0  0  0  0
   -6.5490   14.8990    0.9670 O   0  0  0  0  0  0  0  0  0  0  0  0
   -5.2020   15.3560   -0.8650 C   0  0  0  0  0  0  0  0  0  0  0  0
  1  2  1  0
  2  3  2  0
  2  4  1  0
  4  5  1  0
  3  6  1  0
  5  7  1  0
  5  8  2  0
  6  8  1  0
  6  9  2  0
  7 10  1  0
  7 11  2  0
  9 12  1  0
  8 13  1  0
 12 14  2  0
 12 15  1  0
 13 15  2  0
M  END
