mac-x0385-diamond-x0844_0_A
     RDKit          3D

 16 17  0  0  0  0  0  0  0  0999 V2000
   -4.6200   15.7540   -1.5720 C   0  0  0  0  0  0  0  0  0  0  0  0
   -3.2960   15.5840   -0.9150 C   0  0  0  0  0  0  0  0  0  0  0  0
   -2.1570   16.0120   -1.4920 C   0  0  0  0  0  0  0  0  0  0  0  0
   -3.1590   14.9740    0.2850 C   0  0  0  0  0  0  0  0  0  0  0  0
   -2.0060   14.8080    0.9260 N   0  0  0  0  0  0  0  0  0  0  0  0
   -0.9650   15.8670   -0.9330 N   0  0  0  0  0  0  0  0  0  0  0  0
   -4.4300   14.4390    0.7720 C   0  0  1  0  0  0  0  0  0  0  0  0
   -0.9560   15.2740    0.2560 C   0  0  0  0  0  0  0  0  0  0  0  0
   -5.5480   15.0120    1.3930 N   0  0  0  0  0  0  0  0  0  0  0  0
   -4.5620   13.0220    0.4200 C   0  0  0  0  0  0  0  0  0  0  0  0
    0.3450   15.1010    0.8590 C   0  0  0  0  0  0  0  0  0  0  0  0
   -5.2630   13.1390   -0.9200 C   0  0  2  0  0  0  0  0  0  0  0  0
   -6.6310   14.7480    0.5650 C   0  0  0  0  0  0  0  0  0  0  0  0
   -7.7930   14.8770    0.9370 O   0  0  0  0  0  0  0  0  0  0  0  0
   -3.9270   13.4770   -2.3470 Br  0  0  0  0  0  0  0  0  0  0  0  0
   -6.3150   14.2630   -0.8560 C   0  0  0  0  0  0  0  0  0  0  0  0
  1  2  1  0
  2  3  2  0
  2  4  1  0
  4  5  2  0
  3  6  1  0
  7  4  1  6
  5  8  1  0
  6  8  2  0
  7  9  1  0
  7 10  1  0
  8 11  1  0
 10 12  1  0
  9 13  1  0
 13 14  2  0
 12 15  1  6
 12 16  1  0
 13 16  1  0
M  END
