mac-x0357-mac-x0283
     RDKit          3D

 23 25  0  0  0  0  0  0  0  0999 V2000
    2.3800   13.2170   -4.6660 C   0  0  0  0  0  0  0  0  0  0  0  0
    1.0930   12.4840   -4.9310 C   0  0  0  0  0  0  0  0  0  0  0  0
    0.9070   11.7510   -6.1040 C   0  0  0  0  0  0  0  0  0  0  0  0
    0.0350   12.5070   -4.0260 C   0  0  0  0  0  0  0  0  0  0  0  0
    1.9050   11.7120   -7.0000 O   0  0  0  0  0  0  0  0  0  0  0  0
    0.0680   13.2660   -2.7710 C   0  0  0  0  0  0  0  0  0  0  0  0
   -1.1550   11.8060   -4.2950 C   0  0  0  0  0  0  0  0  0  0  0  0
   -0.2670   11.0540   -6.3830 C   0  0  0  0  0  0  0  0  0  0  0  0
   -0.6950   14.2670   -2.7470 N   0  0  0  0  0  0  0  0  0  0  0  0
    0.8950   12.8080   -1.8060 O   0  0  0  0  0  0  0  0  0  0  0  0
   -1.3050   11.0800   -5.4710 C   0  0  0  0  0  0  0  0  0  0  0  0
   -0.9740   15.2360   -1.7320 C   0  0  0  0  0  0  0  0  0  0  0  0
   -2.3440   15.7210   -2.2080 C   0  0  0  0  0  0  0  0  0  0  0  0
   -3.4540   15.4660   -1.2350 C   0  0  0  0  0  0  0  0  0  0  0  0
   -4.7650   15.2610   -1.7010 C   0  0  0  0  0  0  0  0  0  0  0  0
   -3.1640   15.4310    0.1320 C   0  0  0  0  0  0  0  0  0  0  0  0
   -5.7330   15.0250   -0.7360 C   0  0  0  0  0  0  0  0  0  0  0  0
   -4.1620   15.1920    1.0730 C   0  0  0  0  0  0  0  0  0  0  0  0
   -7.0580   14.8010   -0.9450 O   0  0  0  0  0  0  0  0  0  0  0  0
   -5.4730   14.9830    0.6220 C   0  0  0  0  0  0  0  0  0  0  0  0
   -6.7390   14.7170    1.1970 C   0  0  0  0  0  0  0  0  0  0  0  0
   -7.6950   14.6060    0.2720 N   0  0  0  0  0  0  0  0  0  0  0  0
   -6.9340   14.6020    2.5210 N   0  0  0  0  0  0  0  0  0  0  0  0
  1  2  1  0
  2  3  2  0
  2  4  1  0
  3  5  1  0
  4  6  1  0
  4  7  2  0
  3  8  1  0
  6  9  2  3
  6 10  1  0
  7 11  1  0
  8 11  2  0
  9 12  1  0
 12 13  1  0
 13 14  1  0
 14 15  2  0
 14 16  1  0
 15 17  1  0
 16 18  2  0
 17 19  1  0
 17 20  2  0
 18 20  1  0
 20 21  1  0
 19 22  1  0
 21 22  2  0
 21 23  1  0
M  END
