mac-x0190-mac-x0584
     RDKit          3D

 25 29  0  0  0  0  0  0  0  0999 V2000
   -9.1110   14.9970    2.3940 O   0  0  0  0  0  0  0  0  0  0  0  0
   -8.9160   13.9320    1.4700 C   0  0  0  0  0  0  0  0  0  0  0  0
   -7.5710   14.1050    0.8730 C   0  0  0  0  0  0  0  0  0  0  0  0
   -7.3500   15.0190   -0.1190 N   0  0  0  0  0  0  0  0  0  0  0  0
   -6.4570   13.4540    1.1760 N   0  0  0  0  0  0  0  0  0  0  0  0
   -6.0380   14.9370   -0.4360 C   0  0  0  0  0  0  0  0  0  0  0  0
   -5.4940   13.9740    0.3520 C   0  0  0  0  0  0  0  0  0  0  0  0
   -5.4010   15.6970   -1.3780 C   0  0  0  0  0  0  0  0  0  0  0  0
   -4.0440   13.6010    0.2550 C   0  0  0  0  0  0  0  0  0  0  0  0
   -4.0620   15.6530   -1.3450 C   0  0  0  0  0  0  0  0  0  0  0  0
   -3.1950   14.7880   -0.3680 C   0  0  1  0  0  0  0  0  0  0  0  0
   -2.8260   15.4980    0.9850 C   0  0  0  0  0  0  0  0  0  0  0  0
   -1.8690   14.3790   -1.2060 C   0  0  1  0  0  0  0  0  0  0  0  0
   -1.6770   14.8730   -2.6130 N   0  0  0  0  0  0  0  0  0  0  0  0
   -0.7010   14.9560   -0.5490 N   0  0  0  0  0  0  0  0  0  0  0  0
   -1.6730   14.8690    1.6540 N   0  0  0  0  0  0  0  0  0  0  0  0
   -0.9880   13.9680   -3.5310 C   0  0  2  0  0  0  0  0  0  0  0  0
   -2.8380   15.1880   -3.4690 C   0  0  0  0  0  0  0  0  0  0  0  0
   -0.5100   14.6060    0.8280 C   0  0  0  0  0  0  0  0  0  0  0  0
    0.3470   13.4400   -3.0580 C   0  0  0  0  0  0  0  0  0  0  0  0
   -0.8830   14.7960   -4.8110 C   0  0  0  0  0  0  0  0  0  0  0  0
   -2.2370   15.4900   -4.8460 C   0  0  0  0  0  0  0  0  0  0  0  0
    1.6150   13.8170   -3.8610 C   0  0  0  0  0  0  0  0  0  0  0  0
    0.6720   11.9370   -3.2540 C   0  0  0  0  0  0  0  0  0  0  0  0
    1.7860   12.3500   -4.2350 C   0  0  0  0  0  0  0  0  0  0  0  0
  1  2  1  0
  2  3  1  0
  3  4  1  0
  3  5  2  0
  4  6  1  0
  5  7  1  0
  6  7  2  0
  6  8  1  0
  7  9  1  0
  8 10  2  0
 11  9  1  1
 11 10  1  0
 11 12  1  0
 11 13  1  0
 13 14  1  6
 13 15  1  0
 12 16  1  0
 14 17  1  0
 14 18  1  0
 15 19  1  0
 16 19  1  0
 17 20  1  1
 17 21  1  0
 18 22  1  0
 21 22  1  0
 20 23  1  0
 20 24  1  0
 23 25  1  0
 24 25  1  0
M  END
