mac-x0510-mac-x0182
     RDKit          3D

 25 28  0  0  0  0  0  0  0  0999 V2000
   -6.1510   14.9670    0.7430 O   0  0  0  0  0  0  0  0  0  0  0  0
   -4.9650   15.0970    0.4520 C   0  0  0  0  0  0  0  0  0  0  0  0
   -4.5730   15.4160   -0.8240 N   0  0  0  0  0  0  0  0  0  0  0  0
   -3.9660   14.9210    1.3720 N   0  0  0  0  0  0  0  0  0  0  0  0
   -2.6770   14.8210    0.9410 C   0  0  0  0  0  0  0  0  0  0  0  0
   -3.3620   15.0900   -1.3820 C   0  0  0  0  0  0  0  0  0  0  0  0
   -3.3310   15.0140   -2.6570 N   0  0  0  0  0  0  0  0  0  0  0  0
   -2.3520   14.8970   -0.3870 C   0  0  0  0  0  0  0  0  0  0  0  0
   -1.5990   14.6420    1.7410 N   0  0  0  0  0  0  0  0  0  0  0  0
   -2.1480   14.6600   -3.4410 C   0  0  0  0  0  0  0  0  0  0  0  0
   -0.9920   14.7570   -0.3990 N   0  0  0  0  0  0  0  0  0  0  0  0
   -0.5870   14.6090    0.9040 C   0  0  0  0  0  0  0  0  0  0  0  0
   -1.5750   13.2970   -2.9960 C   0  0  0  0  0  0  0  0  0  0  0  0
   -1.8140   12.2230   -3.9910 N   0  0  0  0  0  0  0  0  0  0  0  0
   -0.7190   11.2000   -4.2660 S   0  0  2  0  0  0  0  0  0  0  0  0
   -0.0240   10.4100   -3.2760 O   0  0  0  0  0  0  0  0  0  0  0  0
    0.4560   12.1040   -5.0520 N   0  0  0  0  0  0  0  0  0  0  0  0
   -1.1130   10.2130   -5.6340 C   0  0  0  0  0  0  0  0  0  0  0  0
    0.7450   11.5640   -6.2770 C   0  0  0  0  0  0  0  0  0  0  0  0
   -0.2320   10.5170   -6.6640 C   0  0  0  0  0  0  0  0  0  0  0  0
   -2.1130    9.2630   -5.7560 C   0  0  0  0  0  0  0  0  0  0  0  0
    1.6930   11.8710   -6.9570 O   0  0  0  0  0  0  0  0  0  0  0  0
   -2.2120    8.6010   -6.9850 C   0  0  0  0  0  0  0  0  0  0  0  0
   -0.3240    9.8660   -7.8860 C   0  0  0  0  0  0  0  0  0  0  0  0
   -1.3270    8.8980   -8.0410 C   0  0  0  0  0  0  0  0  0  0  0  0
  1  2  2  0
  2  3  1  0
  2  4  1  0
  4  5  1  0
  3  6  1  0
  6  7  2  3
  5  8  2  0
  6  8  1  0
  5  9  1  0
  7 10  1  0
  8 11  1  0
  9 12  2  0
 11 12  1  0
 10 13  1  0
 13 14  1  0
 14 15  2  0
 15 16  2  0
 15 17  1  6
 15 18  1  0
 17 19  1  0
 18 20  2  0
 19 20  1  0
 18 21  1  0
 19 22  2  0
 21 23  2  0
 20 24  1  0
 23 25  1  0
 24 25  2  0
M  END
