mac-x0568-diamond-x0950_1_A
     RDKit          3D

 19 19  0  0  0  0  0  0  0  0999 V2000
   -8.6670   14.4720    1.2710 C   0  0  0  0  0  0  0  0  0  0  0  0
   -7.2980   14.6330    0.6820 C   0  0  0  0  0  0  0  0  0  0  0  0
   -6.1820   14.6290    1.5100 C   0  0  0  0  0  0  0  0  0  0  0  0
   -7.2070   14.7820   -0.6580 N   0  0  0  0  0  0  0  0  0  0  0  0
   -5.9680   14.9290   -1.1860 C   0  0  0  0  0  0  0  0  0  0  0  0
   -4.9150   14.7810    0.9490 C   0  0  0  0  0  0  0  0  0  0  0  0
   -4.8040   14.9320   -0.4330 C   0  0  0  0  0  0  0  0  0  0  0  0
   -3.5130   15.0880   -1.1140 C   0  0  0  0  0  0  0  0  0  0  0  0
   -3.4890   15.3060   -2.3240 O   0  0  0  0  0  0  0  0  0  0  0  0
   -2.3430   14.9880   -0.4000 N   0  0  0  0  0  0  0  0  0  0  0  0
   -1.5030   13.8280   -0.1760 C   0  0  0  0  0  0  0  0  0  0  0  0
   -0.0280   14.1570   -0.3710 C   0  0  0  0  0  0  0  0  0  0  0  0
    0.3850   14.1050   -1.8370 C   0  0  0  0  0  0  0  0  0  0  0  0
    1.2900   13.0000   -2.0290 O   0  0  0  0  0  0  0  0  0  0  0  0
    0.9120   12.1140   -2.9900 C   0  0  0  0  0  0  0  0  0  0  0  0
    1.3650   12.5410   -4.3950 C   0  0  2  0  0  0  0  0  0  0  0  0
    0.2860   11.0790   -2.7690 O   0  0  0  0  0  0  0  0  0  0  0  0
    1.0970   14.0060   -4.7070 C   0  0  0  0  0  0  0  0  0  0  0  0
    0.7020   11.7600   -5.3930 O   0  0  0  0  0  0  0  0  0  0  0  0
  1  2  1  0
  2  3  2  0
  2  4  1  0
  4  5  2  0
  3  6  1  0
  5  7  1  0
  6  7  2  0
  7  8  1  0
  8  9  2  0
  8 10  1  0
 10 11  1  0
 11 12  1  0
 12 13  1  0
 13 14  1  0
 14 15  1  0
 15 16  1  0
 15 17  2  0
 16 18  1  6
 16 19  1  0
M  END
