mac-x0277-diamond-x0681_0_A
     RDKit          3D

 26 28  0  0  0  0  0  0  0  0999 V2000
   -1.3790   18.2250   -5.3870 Cl  0  0  0  0  0  0  0  0  0  0  0  0
   -0.6140   16.7100   -5.0530 C   0  0  0  0  0  0  0  0  0  0  0  0
   -1.2490   15.4610   -5.2700 C   0  0  0  0  0  0  0  0  0  0  0  0
    0.6950   16.7650   -4.5520 C   0  0  0  0  0  0  0  0  0  0  0  0
   -2.6650   15.3160   -5.8260 C   0  0  0  0  0  0  0  0  0  0  0  0
   -0.5280   14.3050   -4.9640 C   0  0  0  0  0  0  0  0  0  0  0  0
    1.3860   15.5910   -4.2590 C   0  0  0  0  0  0  0  0  0  0  0  0
   -3.7280   14.9420   -4.8540 C   0  0  0  0  0  0  0  0  0  0  0  0
    0.7790   14.3510   -4.4630 C   0  0  0  0  0  0  0  0  0  0  0  0
    1.5010   13.0670   -4.1520 C   0  0  0  0  0  0  0  0  0  0  0  0
   -3.3930   15.7250   -3.6310 C   0  0  0  0  0  0  0  0  0  0  0  0
    1.0030   12.4100   -2.8780 C   0  0  0  0  0  0  0  0  0  0  0  0
   -2.8550   14.8840   -2.6380 N   0  0  0  0  0  0  0  0  0  0  0  0
    0.2850   11.2820   -3.1020 O   0  0  0  0  0  0  0  0  0  0  0  0
    1.1900   12.8150   -1.7460 O   0  0  0  0  0  0  0  0  0  0  0  0
   -3.5940   14.8810   -1.6370 C   0  0  0  0  0  0  0  0  0  0  0  0
   -4.6970   15.6800   -1.8110 N   0  0  0  0  0  0  0  0  0  0  0  0
   -3.5490   14.2110   -0.3220 C   0  0  2  0  0  0  0  0  0  0  0  0
   -4.6620   13.2280   -0.2610 C   0  0  0  0  0  0  0  0  0  0  0  0
   -3.5750   15.3300    0.7180 C   0  0  0  0  0  0  0  0  0  0  0  0
   -5.6610   13.3460    0.6520 N   0  0  0  0  0  0  0  0  0  0  0  0
   -4.3340   14.9340    1.9430 C   0  0  0  0  0  0  0  0  0  0  0  0
   -4.8600   12.1760   -1.0250 N   0  0  0  0  0  0  0  0  0  0  0  0
   -5.7250   14.4040    1.6190 C   0  0  0  0  0  0  0  0  0  0  0  0
   -6.5410   12.3270    0.4790 C   0  0  0  0  0  0  0  0  0  0  0  0
   -6.0250   11.6120   -0.5730 C   0  0  0  0  0  0  0  0  0  0  0  0
  1  2  1  0
  2  3  2  0
  2  4  1  0
  3  5  1  0
  3  6  1  0
  4  7  2  0
  5  8  1  0
  6  9  2  0
  7  9  1  0
  9 10  1  0
  8 11  1  0
 10 12  1  0
 11 13  1  0
 12 14  1  0
 12 15  2  0
 13 16  2  3
 16 17  1  0
 18 16  1  6
 18 19  1  0
 18 20  1  0
 19 21  1  0
 20 22  1  0
 19 23  2  0
 21 24  1  0
 22 24  1  0
 21 25  1  0
 23 26  1  0
 25 26  2  0
M  END
