mac-x0306-mac-x0206
     RDKit          3D

 15 16  0  0  0  0  0  0  0  0999 V2000
   -3.6820   14.8800    1.5910 N   0  0  0  0  0  0  0  0  0  0  0  0
   -4.5470   14.4590    0.6490 C   0  0  0  0  0  0  0  0  0  0  0  0
   -4.1680   13.6040   -0.1510 O   0  0  0  0  0  0  0  0  0  0  0  0
   -5.7990   15.0150    0.6310 N   0  0  0  0  0  0  0  0  0  0  0  0
   -6.8540   14.4820    1.3710 C   0  0  0  0  0  0  0  0  0  0  0  0
   -6.3340   15.4310   -0.6720 C   0  0  2  0  0  0  0  0  0  0  0  0
   -7.8730   14.2120    0.5470 C   0  0  0  0  0  0  0  0  0  0  0  0
   -7.5330   14.5560   -0.7520 N   0  0  0  0  0  0  0  0  0  0  0  0
   -5.2600   15.1750   -1.6680 C   0  0  0  0  0  0  0  0  0  0  0  0
   -7.4840   13.5840   -1.7410 O   0  0  0  0  0  0  0  0  0  0  0  0
   -5.4720   14.7980   -2.9820 C   0  0  0  0  0  0  0  0  0  0  0  0
   -3.9430   15.3320   -1.2210 C   0  0  0  0  0  0  0  0  0  0  0  0
   -4.3620   14.5950   -3.7850 C   0  0  0  0  0  0  0  0  0  0  0  0
   -2.9060   15.1000   -2.0910 C   0  0  0  0  0  0  0  0  0  0  0  0
   -3.0850   14.7350   -3.3690 N   0  0  0  0  0  0  0  0  0  0  0  0
  1  2  1  0
  2  3  2  0
  2  4  1  0
  4  5  1  0
  4  6  1  0
  5  7  2  0
  6  8  1  0
  7  8  1  0
  6  9  1  6
  8 10  1  0
  9 11  2  0
  9 12  1  0
 11 13  1  0
 12 14  2  0
 13 15  2  0
 14 15  1  0
M  END
