mac-x0576-mac-x0182
     RDKit          3D

 27 30  0  0  0  0  0  0  0  0999 V2000
    0.0920   14.2540    1.7850 N   0  0  0  0  0  0  0  0  0  0  0  0
   -0.9310   14.1250    0.8000 C   0  0  1  0  0  0  0  0  0  0  0  0
   -2.1090   14.5050    1.5340 N   0  0  0  0  0  0  0  0  0  0  0  0
   -0.7410   14.6870   -0.4940 N   0  0  0  0  0  0  0  0  0  0  0  0
   -1.8260   14.8360   -1.3230 C   0  0  0  0  0  0  0  0  0  0  0  0
   -3.2510   14.3020    0.6820 C   0  0  2  0  0  0  0  0  0  0  0  0
   -1.8910   14.8090   -2.6120 N   0  0  0  0  0  0  0  0  0  0  0  0
   -3.1790   15.0740   -0.6310 C   0  0  2  0  0  0  0  0  0  0  0  0
   -4.4030   14.7570    1.3910 N   0  0  0  0  0  0  0  0  0  0  0  0
   -0.7300   14.5850   -3.4630 C   0  0  0  0  0  0  0  0  0  0  0  0
   -5.5770   14.9220    0.6910 C   0  0  0  0  0  0  0  0  0  0  0  0
   -4.3120   14.6720   -1.4650 N   0  0  0  0  0  0  0  0  0  0  0  0
   -6.6540   14.7920    1.2650 O   0  0  0  0  0  0  0  0  0  0  0  0
   -1.1540   13.7020   -4.6500 C   0  0  0  0  0  0  0  0  0  0  0  0
   -5.4900   15.2660   -0.8140 C   0  0  0  0  0  0  0  0  0  0  0  0
   -1.6210   12.3630   -4.1940 N   0  0  0  0  0  0  0  0  0  0  0  0
   -0.6470   11.2050   -4.3290 S   0  0  2  0  0  0  0  0  0  0  0  0
   -0.0680   10.4020   -3.2750 O   0  0  0  0  0  0  0  0  0  0  0  0
    0.6290   11.9710   -5.0910 N   0  0  0  0  0  0  0  0  0  0  0  0
   -1.0790   10.2080   -5.6750 C   0  0  0  0  0  0  0  0  0  0  0  0
    0.8060   11.4980   -6.3580 C   0  0  0  0  0  0  0  0  0  0  0  0
   -0.2040   10.4740   -6.7200 C   0  0  0  0  0  0  0  0  0  0  0  0
   -2.1020    9.2850   -5.7660 C   0  0  0  0  0  0  0  0  0  0  0  0
    1.6920   11.8300   -7.0870 O   0  0  0  0  0  0  0  0  0  0  0  0
   -2.2350    8.6080   -6.9820 C   0  0  0  0  0  0  0  0  0  0  0  0
   -0.3260    9.8100   -7.9280 C   0  0  0  0  0  0  0  0  0  0  0  0
   -1.3570    8.8670   -8.0530 C   0  0  0  0  0  0  0  0  0  0  0  0
  2  1  1  1
  2  3  1  0
  2  4  1  0
  4  5  1  0
  6  3  1  1
  5  7  2  3
  5  8  1  0
  6  8  1  0
  6  9  1  0
  7 10  1  0
  9 11  1  0
  8 12  1  6
 11 13  2  0
 10 14  1  0
 11 15  1  0
 12 15  1  0
 14 16  1  0
 16 17  2  0
 17 18  2  0
 17 19  1  6
 17 20  1  0
 19 21  1  0
 20 22  2  0
 21 22  1  0
 20 23  1  0
 21 24  2  0
 23 25  2  0
 22 26  1  0
 25 27  1  0
 26 27  2  0
M  END
