mac-x0182-diamond-x0591_0_A
     RDKit          3D

 25 27  0  0  0  0  0  0  0  0999 V2000
    1.8270   11.7980   -7.0730 O   0  0  0  0  0  0  0  0  0  0  0  0
    0.8030   11.5840   -6.3410 C   0  0  0  0  0  0  0  0  0  0  0  0
    0.5500   12.2660   -5.1600 N   0  0  0  0  0  0  0  0  0  0  0  0
   -0.2060   10.5810   -6.6000 C   0  0  0  0  0  0  0  0  0  0  0  0
   -0.8140   11.7750   -4.4380 S   0  0  0  0  0  0  0  0  0  0  0  0
   -1.1510   10.5610   -5.6370 C   0  0  0  0  0  0  0  0  0  0  0  0
   -0.2180    9.7140   -7.7110 C   0  0  0  0  0  0  0  0  0  0  0  0
   -2.2440   12.5680   -4.8440 N   0  0  0  0  0  0  0  0  0  0  0  0
   -0.7480   10.5540   -3.3380 O   0  0  0  0  0  0  0  0  0  0  0  0
   -2.1710    9.5900   -5.8140 C   0  0  0  0  0  0  0  0  0  0  0  0
   -1.2270    8.8200   -7.8070 C   0  0  0  0  0  0  0  0  0  0  0  0
   -2.3120   14.1480   -4.7600 S   0  0  1  0  0  0  0  0  0  0  0  0
   -2.1990    8.7510   -6.8710 C   0  0  0  0  0  0  0  0  0  0  0  0
   -0.8380   14.9650   -4.4040 N   0  0  0  0  0  0  0  0  0  0  0  0
   -2.8310   14.6330   -6.0820 O   0  0  0  0  0  0  0  0  0  0  0  0
   -3.4470   14.3980   -3.4940 C   0  0  0  0  0  0  0  0  0  0  0  0
   -3.0900   14.1630   -2.1790 C   0  0  0  0  0  0  0  0  0  0  0  0
   -4.7110   14.8110   -3.7360 C   0  0  0  0  0  0  0  0  0  0  0  0
   -3.9870   14.3310   -1.1490 C   0  0  0  0  0  0  0  0  0  0  0  0
   -5.6310   14.9850   -2.6960 C   0  0  0  0  0  0  0  0  0  0  0  0
   -5.2890   14.7430   -1.3890 C   0  0  0  0  0  0  0  0  0  0  0  0
   -6.2180   14.8900   -0.2880 C   0  0  0  0  0  0  0  0  0  0  0  0
   -5.8660   14.7050    1.0620 N   0  0  0  0  0  0  0  0  0  0  0  0
   -7.4320   15.1760   -0.5540 O   0  0  0  0  0  0  0  0  0  0  0  0
   -6.8810   14.5170    2.0670 C   0  0  0  0  0  0  0  0  0  0  0  0
  1  2  2  0
  2  3  1  0
  2  4  1  0
  3  5  1  0
  4  6  2  0
  5  6  1  0
  4  7  1  0
  5  8  1  0
  5  9  2  0
  6 10  1  0
  7 11  2  0
  8 12  2  0
 10 13  2  0
 11 13  1  0
 12 14  1  1
 12 15  2  0
 12 16  1  0
 16 17  2  0
 16 18  1  0
 17 19  1  0
 18 20  2  0
 19 21  2  0
 20 21  1  0
 21 22  1  0
 22 23  1  0
 22 24  2  0
 23 25  1  0
M  END
