mac-x0572-diamond-x0910_0_A
     RDKit          3D

 19 21  0  0  0  0  0  0  0  0999 V2000
   -8.4810   14.5250    3.3000 C   0  0  0  0  0  0  0  0  0  0  0  0
   -7.6830   14.6800    2.0360 C   0  0  0  0  0  0  0  0  0  0  0  0
   -6.3960   15.0660    2.2670 N   0  0  0  0  0  0  0  0  0  0  0  0
   -8.1980   14.4740    0.8060 C   0  0  0  0  0  0  0  0  0  0  0  0
   -9.4960   14.1060    0.5500 O   0  0  0  0  0  0  0  0  0  0  0  0
   -7.2740   14.6550   -0.3420 C   0  0  0  0  0  0  0  0  0  0  0  0
   -5.5240   14.9100    1.3380 C   0  0  0  0  0  0  0  0  0  0  0  0
   -7.6780   15.0380   -1.4350 O   0  0  0  0  0  0  0  0  0  0  0  0
   -5.8740   14.2910    0.0160 C   0  0  2  0  0  0  0  0  0  0  0  0
   -4.1640   15.3660    1.5980 C   0  0  0  0  0  0  0  0  0  0  0  0
   -3.3040   15.3170    0.6110 C   0  0  0  0  0  0  0  0  0  0  0  0
   -4.8100   14.3820   -1.0270 C   0  0  0  0  0  0  0  0  0  0  0  0
   -3.5990   14.8340   -0.7330 C   0  0  0  0  0  0  0  0  0  0  0  0
   -2.5140   14.8920   -1.5050 N   0  0  0  0  0  0  0  0  0  0  0  0
   -1.3620   14.8290   -0.8620 C   0  0  0  0  0  0  0  0  0  0  0  0
   -1.3230   14.6090    0.4910 N   0  0  0  0  0  0  0  0  0  0  0  0
   -0.1640   14.9630   -1.3160 N   0  0  0  0  0  0  0  0  0  0  0  0
   -0.0830   14.6090    0.9510 N   0  0  0  0  0  0  0  0  0  0  0  0
    0.5800   14.8310   -0.1930 C   0  0  0  0  0  0  0  0  0  0  0  0
  1  2  1  0
  2  3  1  0
  2  4  2  0
  4  5  1  0
  4  6  1  0
  3  7  2  0
  6  8  2  0
  6  9  1  0
  7  9  1  0
  7 10  1  0
 10 11  2  0
  9 12  1  6
 11 13  1  0
 12 13  2  0
 13 14  1  0
 14 15  1  0
 15 16  1  0
 15 17  2  0
 16 18  1  0
 17 19  1  0
 18 19  2  0
M  END
