mac-x0223-mac-x0394
     RDKit          3D

 14 14  0  0  0  0  0  0  0  0999 V2000
    1.1970   18.4810   -5.6380 C   0  0  0  0  0  0  0  0  0  0  0  0
    0.2330   18.1960   -4.6450 O   0  0  0  0  0  0  0  0  0  0  0  0
   -0.1930   16.9070   -4.6720 C   0  0  0  0  0  0  0  0  0  0  0  0
   -1.5660   16.7680   -4.8370 C   0  0  0  0  0  0  0  0  0  0  0  0
    0.6160   15.7770   -4.5550 C   0  0  0  0  0  0  0  0  0  0  0  0
   -2.3100   17.9230   -4.9330 O   0  0  0  0  0  0  0  0  0  0  0  0
   -2.1350   15.4920   -4.8970 C   0  0  0  0  0  0  0  0  0  0  0  0
    0.0480   14.4940   -4.6030 C   0  0  0  0  0  0  0  0  0  0  0  0
    0.9050   13.2600   -4.4740 C   0  0  0  0  0  0  0  0  0  0  0  0
   -3.8080   15.2270   -5.1200 Cl  0  0  0  0  0  0  0  0  0  0  0  0
   -1.3300   14.3650   -4.7770 C   0  0  0  0  0  0  0  0  0  0  0  0
    0.6570   12.5060   -3.1910 C   0  0  0  0  0  0  0  0  0  0  0  0
    0.2230   11.3750   -3.0840 O   0  0  0  0  0  0  0  0  0  0  0  0
    0.9600   13.2190   -2.0890 O   0  0  0  0  0  0  0  0  0  0  0  0
  1  2  1  0
  2  3  1  0
  3  4  2  0
  3  5  1  0
  4  6  1  0
  4  7  1  0
  5  8  2  0
  8  9  1  0
  7 10  1  0
  7 11  2  0
  8 11  1  0
  9 12  1  0
 12 13  2  0
 12 14  1  0
M  END
