mac-x0564-diamond-x0290_0_A
     RDKit          3D

 27 30  0  0  0  0  0  0  0  0999 V2000
    0.9090   14.0050   -2.9210 O   0  0  0  0  0  0  0  0  0  0  0  0
   -0.0610   13.9930   -3.6860 C   0  0  0  0  0  0  0  0  0  0  0  0
   -0.0420   13.6090   -4.9650 N   0  0  0  0  0  0  0  0  0  0  0  0
   -1.3750   14.3890   -3.2520 C   0  0  0  0  0  0  0  0  0  0  0  0
   -2.5340   14.3000   -4.0450 C   0  0  0  0  0  0  0  0  0  0  0  0
   -1.1470   13.5750   -5.6460 C   0  0  0  0  0  0  0  0  0  0  0  0
   -1.6580   14.8440   -2.1680 C   0  0  0  0  0  0  0  0  0  0  0  0
   -0.5370   14.9560   -1.3530 C   0  0  0  0  0  0  0  0  0  0  0  0
   -2.4430   13.9020   -5.2460 N   0  0  0  0  0  0  0  0  0  0  0  0
   -3.1010   15.1060   -1.9990 C   0  0  0  0  0  0  0  0  0  0  0  0
   -3.6620   14.7400   -3.2100 C   0  0  0  0  0  0  0  0  0  0  0  0
   -5.0150   14.8170   -3.4590 C   0  0  0  0  0  0  0  0  0  0  0  0
   -3.9210   15.5910   -0.9720 C   0  0  0  0  0  0  0  0  0  0  0  0
   -1.0790   14.7310   -0.1170 C   0  0  0  0  0  0  0  0  0  0  0  0
   -5.8350   15.2950   -2.4350 C   0  0  0  0  0  0  0  0  0  0  0  0
   -5.2980   15.6830   -1.2030 C   0  0  0  0  0  0  0  0  0  0  0  0
   -0.2130   14.3320    0.7630 C   0  0  0  0  0  0  0  0  0  0  0  0
   -2.4270   14.9200    0.1080 C   0  0  0  0  0  0  0  0  0  0  0  0
   -0.6860   14.1100    1.9470 C   0  0  0  0  0  0  0  0  0  0  0  0
   -2.8750   14.6820    1.3460 C   0  0  0  0  0  0  0  0  0  0  0  0
   -4.2310   14.8560    1.6260 N   0  0  0  0  0  0  0  0  0  0  0  0
   -1.9910   14.2890    2.2490 N   0  0  0  0  0  0  0  0  0  0  0  0
   -5.3180   14.2640    1.0460 C   0  0  0  0  0  0  0  0  0  0  0  0
   -5.2160   13.8270   -0.1070 O   0  0  0  0  0  0  0  0  0  0  0  0
   -6.6410   14.1170    1.7980 C   0  0  0  0  0  0  0  0  0  0  0  0
   -7.7760   13.8040    0.9020 N   0  0  0  0  0  0  0  0  0  0  0  0
   -8.6130   14.9640    0.6430 C   0  0  0  0  0  0  0  0  0  0  0  0
  1  2  2  0
  2  3  1  0
  2  4  1  0
  4  5  1  0
  3  6  2  0
  4  7  2  0
  7  8  1  0
  5  9  2  0
  6  9  1  0
  7 10  1  0
  5 11  1  0
 10 11  2  0
 11 12  1  0
 10 13  1  0
  8 14  1  0
 12 15  2  0
 13 16  2  0
 15 16  1  0
 14 17  2  0
 14 18  1  0
 17 19  1  0
 18 20  2  0
 20 21  1  0
 19 22  2  0
 20 22  1  0
 21 23  1  0
 23 24  2  0
 23 25  1  0
 25 26  1  0
 26 27  1  0
M  END
