mac-x0161-mac-x0263
     RDKit          3D

 30 34  0  0  0  0  0  0  0  0999 V2000
   -3.7410   16.3200    0.8160 N   0  0  0  0  0  0  0  0  0  0  0  0
   -3.5010   15.1350    0.0040 C   0  0  2  0  0  0  0  0  0  0  0  0
   -2.0190   14.7590    0.0940 C   0  0  1  0  0  0  0  0  0  0  0  0
   -3.8710   15.4570   -1.3920 N   0  0  0  0  0  0  0  0  0  0  0  0
   -4.2460   13.9890    0.6930 C   0  0  0  0  0  0  0  0  0  0  0  0
   -2.9390   14.8820   -2.3670 C   0  0  0  0  0  0  0  0  0  0  0  0
   -1.1800   15.5900   -0.8350 C   0  0  2  0  0  0  0  0  0  0  0  0
   -1.3100   15.0610    1.3450 N   0  0  0  0  0  0  0  0  0  0  0  0
   -5.7190   13.9890    0.3980 C   0  0  2  0  0  0  0  0  0  0  0  0
   -5.2620   15.0670   -1.7500 C   0  0  0  0  0  0  0  0  0  0  0  0
   -1.6120   15.4680   -2.2240 N   0  0  0  0  0  0  0  0  0  0  0  0
    0.0820   14.9330   -0.5620 N   0  0  0  0  0  0  0  0  0  0  0  0
    0.0360   14.7450    0.8980 C   0  0  0  0  0  0  0  0  0  0  0  0
   -6.1290   15.1020   -0.5140 C   0  0  1  0  0  0  0  0  0  0  0  0
   -6.6830   14.2030    1.4540 N   0  0  0  0  0  0  0  0  0  0  0  0
   -0.6140   15.0280   -3.2160 C   0  0  0  0  0  0  0  0  0  0  0  0
   -7.8360   13.9980    0.5970 C   0  0  2  0  0  0  0  0  0  0  0  0
   -7.5920   14.8870   -0.5610 N   0  0  0  0  0  0  0  0  0  0  0  0
   -9.1980   14.1670    1.2800 C   0  0  0  0  0  0  0  0  0  0  0  0
   -0.5480   13.5730   -3.5490 C   0  0  0  0  0  0  0  0  0  0  0  0
   -9.4400   15.4170    2.1180 C   0  0  0  0  0  0  0  0  0  0  0  0
   -0.9990   12.8130   -4.6020 C   0  0  0  0  0  0  0  0  0  0  0  0
    0.0910   12.7650   -2.6560 O   0  0  0  0  0  0  0  0  0  0  0  0
  -10.7960   15.3200    2.7570 C   0  0  0  0  0  0  0  0  0  0  0  0
    0.0680   11.4570   -3.1130 N   0  0  0  0  0  0  0  0  0  0  0  0
   -0.5860   11.5110   -4.2730 C   0  0  0  0  0  0  0  0  0  0  0  0
   -0.7950   10.3980   -5.0090 O   0  0  0  0  0  0  0  0  0  0  0  0
  -11.5290   14.2720    2.3320 O   0  0  0  0  0  0  0  0  0  0  0  0
  -11.2740   16.0610    3.5900 O   0  0  0  0  0  0  0  0  0  0  0  0
   -1.8290   10.5110   -5.9800 C   0  0  0  0  0  0  0  0  0  0  0  0
  2  1  1  1
  2  3  1  0
  2  4  1  0
  2  5  1  0
  4  6  1  0
  3  7  1  0
  3  8  1  1
  9  5  1  1
  4 10  1  0
  6 11  1  0
  7 11  1  0
  7 12  1  6
  8 13  1  0
 12 13  1  0
  9 14  1  0
 14 10  1  6
  9 15  1  0
 11 16  1  0
 15 17  1  0
 14 18  1  0
 17 18  1  0
 17 19  1  1
 16 20  1  0
 19 21  1  0
 20 22  2  0
 20 23  1  0
 21 24  1  0
 23 25  1  0
 22 26  1  0
 25 26  2  0
 26 27  1  0
 24 28  1  0
 24 29  2  0
 27 30  1  0
M  END
