mac-x0338-mac-x0321
     RDKit          3D

 12 12  0  0  0  0  0  0  0  0999 V2000
   -3.9370   15.3500    2.0130 N   0  0  0  0  0  0  0  0  0  0  0  0
   -4.9820   15.0960    1.1780 C   0  0  0  0  0  0  0  0  0  0  0  0
   -6.1150   14.9280    1.6120 O   0  0  0  0  0  0  0  0  0  0  0  0
   -4.6860   15.0380   -0.2720 C   0  0  0  0  0  0  0  0  0  0  0  0
   -3.3930   14.8590   -0.6770 N   0  0  0  0  0  0  0  0  0  0  0  0
   -5.7320   15.1660   -1.1650 C   0  0  0  0  0  0  0  0  0  0  0  0
   -3.2210   14.8150   -2.0320 C   0  0  0  0  0  0  0  0  0  0  0  0
   -5.5560   15.1200   -2.5020 N   0  0  0  0  0  0  0  0  0  0  0  0
   -1.8550   14.6150   -2.5950 C   0  0  0  0  0  0  0  0  0  0  0  0
   -4.2820   14.9450   -2.9090 C   0  0  0  0  0  0  0  0  0  0  0  0
   -0.8790   14.6240   -1.6690 O   0  0  0  0  0  0  0  0  0  0  0  0
   -1.5800   14.4580   -3.7710 O   0  0  0  0  0  0  0  0  0  0  0  0
  1  2  1  0
  2  3  2  0
  2  4  1  0
  4  5  2  0
  4  6  1  0
  5  7  1  0
  6  8  2  0
  7  9  1  0
  7 10  2  0
  8 10  1  0
  9 11  1  0
  9 12  2  0
M  END
