mac-x0179-mac-x0360
     RDKit          3D

 29 31  0  0  0  0  0  0  0  0999 V2000
    1.6060   13.0620   -2.3400 O   0  0  0  0  0  0  0  0  0  0  0  0
    0.9700   12.2060   -3.1670 C   0  0  0  0  0  0  0  0  0  0  0  0
    0.7770   11.0610   -2.8050 O   0  0  0  0  0  0  0  0  0  0  0  0
    0.5870   12.8390   -4.4890 C   0  0  0  0  0  0  0  0  0  0  0  0
    0.0610   11.8050   -5.3580 N   0  0  0  0  0  0  0  0  0  0  0  0
    0.7000   11.4310   -6.4950 C   0  0  0  0  0  0  0  0  0  0  0  0
   -1.1860   11.2390   -5.2680 C   0  0  0  0  0  0  0  0  0  0  0  0
    1.7270   11.8550   -6.9540 O   0  0  0  0  0  0  0  0  0  0  0  0
   -2.0220   11.6350   -4.3860 N   0  0  0  0  0  0  0  0  0  0  0  0
   -0.0950   10.3510   -7.0770 C   0  0  0  0  0  0  0  0  0  0  0  0
   -1.2570   10.2220   -6.3240 C   0  0  0  0  0  0  0  0  0  0  0  0
   -3.3730   11.1090   -4.2450 C   0  0  0  0  0  0  0  0  0  0  0  0
    0.1890    9.5540   -8.1710 C   0  0  0  0  0  0  0  0  0  0  0  0
   -2.1890    9.2580   -6.6600 C   0  0  0  0  0  0  0  0  0  0  0  0
   -3.4890   10.1380   -3.0700 C   0  0  0  0  0  0  0  0  0  0  0  0
   -0.7510    8.5800   -8.5140 C   0  0  0  0  0  0  0  0  0  0  0  0
   -1.9310    8.4340   -7.7620 C   0  0  0  0  0  0  0  0  0  0  0  0
   -4.9160   10.0750   -2.5110 C   0  0  0  0  0  0  0  0  0  0  0  0
   -5.1950   11.1230   -1.4550 C   0  0  0  0  0  0  0  0  0  0  0  0
   -4.4500   12.3140   -1.4090 C   0  0  0  0  0  0  0  0  0  0  0  0
   -6.2030   10.9180   -0.5030 C   0  0  0  0  0  0  0  0  0  0  0  0
   -4.7200   13.2690   -0.4200 C   0  0  0  0  0  0  0  0  0  0  0  0
   -6.4580   11.8720    0.4810 C   0  0  0  0  0  0  0  0  0  0  0  0
   -7.6940   11.5850    1.6410 Cl  0  0  0  0  0  0  0  0  0  0  0  0
   -3.7870   14.7820   -0.3690 S   0  0  0  0  0  0  0  0  0  0  0  0
   -5.7200   13.0530    0.5290 C   0  0  0  0  0  0  0  0  0  0  0  0
   -2.8130   14.6450   -1.7290 N   0  0  0  0  0  0  0  0  0  0  0  0
   -4.6820   15.8760   -0.6430 O   0  0  0  0  0  0  0  0  0  0  0  0
   -2.8930   14.7800    0.7640 O   0  0  0  0  0  0  0  0  0  0  0  0
  1  2  1  0
  2  3  2  0
  2  4  1  0
  4  5  1  0
  5  6  1  0
  5  7  1  0
  6  8  2  0
  7  9  2  3
  6 10  1  0
  7 11  1  0
 10 11  2  0
  9 12  1  0
 10 13  1  0
 11 14  1  0
 12 15  1  0
 13 16  2  0
 14 17  2  0
 16 17  1  0
 15 18  1  0
 18 19  1  0
 19 20  2  0
 19 21  1  0
 20 22  1  0
 21 23  2  0
 23 24  1  0
 22 25  1  0
 22 26  2  0
 23 26  1  0
 25 27  1  0
 25 28  2  0
 25 29  2  0
M  END
