mac-x0333-mac-x0387
     RDKit          3D

 21 24  0  0  0  0  0  0  0  0999 V2000
   -3.8660   15.8880   -3.2670 O   0  0  0  0  0  0  0  0  0  0  0  0
   -4.5340   15.5780   -2.1090 C   0  0  0  0  0  0  0  0  0  0  0  0
   -3.8350   15.4510   -0.9200 C   0  0  0  0  0  0  0  0  0  0  0  0
   -5.9030   15.3940   -2.1380 C   0  0  0  0  0  0  0  0  0  0  0  0
   -6.5180   15.0870   -0.9490 C   0  0  0  0  0  0  0  0  0  0  0  0
   -4.4660   15.1350    0.2760 C   0  0  0  0  0  0  0  0  0  0  0  0
   -3.6720   15.0140    1.3940 N   0  0  0  0  0  0  0  0  0  0  0  0
   -5.8230   14.9600    0.2300 C   0  0  0  0  0  0  0  0  0  0  0  0
   -7.8470   14.8720   -0.7760 O   0  0  0  0  0  0  0  0  0  0  0  0
   -6.6330   14.6520    1.2810 O   0  0  0  0  0  0  0  0  0  0  0  0
   -7.8630   14.4030    0.5830 C   0  0  0  0  0  0  0  0  0  0  0  0
   -2.3560   14.7000    1.0570 C   0  0  0  0  0  0  0  0  0  0  0  0
   -2.1470   14.4070   -0.3250 C   0  0  0  0  0  0  0  0  0  0  0  0
   -1.3780   14.6920    1.9460 N   0  0  0  0  0  0  0  0  0  0  0  0
   -0.8520   14.1240   -0.7490 C   0  0  0  0  0  0  0  0  0  0  0  0
   -0.1590   14.4040    1.4980 C   0  0  0  0  0  0  0  0  0  0  0  0
   -3.1560   14.3810   -1.3220 C   0  0  0  0  0  0  0  0  0  0  0  0
    0.1490   14.1240    0.1790 C   0  0  0  0  0  0  0  0  0  0  0  0
   -0.5670   13.8430   -2.0930 C   0  0  0  0  0  0  0  0  0  0  0  0
   -2.8710   14.0950   -2.6600 C   0  0  0  0  0  0  0  0  0  0  0  0
   -1.5760   13.8310   -3.0480 C   0  0  0  0  0  0  0  0  0  0  0  0
  1  2  1  0
  2  3  2  0
  2  4  1  0
  4  5  2  0
  3  6  1  0
  6  7  1  0
  5  8  1  0
  6  8  2  0
  5  9  1  0
  8 10  1  0
  9 11  1  0
 10 11  1  0
  7 12  1  0
 12 13  1  0
 12 14  2  0
 13 15  2  0
 14 16  1  0
 13 17  1  0
 15 18  1  0
 16 18  2  0
 15 19  1  0
 17 20  2  0
 19 21  2  0
 20 21  1  0
M  END
