mac-x0436-mac-x0284
     RDKit          3D

 26 28  0  0  0  0  0  0  0  0999 V2000
    0.8930   11.0300   -2.6720 O   0  0  0  0  0  0  0  0  0  0  0  0
    0.7820   12.3470   -2.8650 C   0  0  0  0  0  0  0  0  0  0  0  0
    0.1290   12.9470   -1.9500 N   0  0  0  0  0  0  0  0  0  0  0  0
    1.4360   12.8480   -4.1340 C   0  0  0  0  0  0  0  0  0  0  0  0
    0.4070   13.1390   -5.2250 C   0  0  0  0  0  0  0  0  0  0  0  0
   -0.1060   14.3790   -2.0620 C   0  0  1  0  0  0  0  0  0  0  0  0
    0.3650   14.8970   -3.2910 O   0  0  0  0  0  0  0  0  0  0  0  0
   -0.3620   11.8930   -5.6040 C   0  0  0  0  0  0  0  0  0  0  0  0
   -1.5940   14.7020   -1.9830 C   0  0  0  0  0  0  0  0  0  0  0  0
   -1.6520   11.5660   -4.8380 C   0  0  0  0  0  0  0  0  0  0  0  0
    0.0910   11.1430   -6.5610 N   0  0  0  0  0  0  0  0  0  0  0  0
   -2.1970   14.8650   -0.7210 C   0  0  0  0  0  0  0  0  0  0  0  0
   -2.4140   14.8580   -3.1190 C   0  0  0  0  0  0  0  0  0  0  0  0
   -2.0420   12.2820   -3.9320 O   0  0  0  0  0  0  0  0  0  0  0  0
   -1.8980   14.7150   -4.3750 O   0  0  0  0  0  0  0  0  0  0  0  0
   -2.3180   10.4340   -5.2370 N   0  0  0  0  0  0  0  0  0  0  0  0
   -0.6300    9.9940   -6.9050 C   0  0  0  0  0  0  0  0  0  0  0  0
   -3.5600   15.1840   -0.5850 C   0  0  0  0  0  0  0  0  0  0  0  0
   -3.7700   15.1660   -2.9920 C   0  0  0  0  0  0  0  0  0  0  0  0
   -4.1600   15.3670    0.7740 C   0  0  0  0  0  0  0  0  0  0  0  0
   -1.8230    9.6270   -6.2640 C   0  0  0  0  0  0  0  0  0  0  0  0
   -0.1370    9.1840   -7.9260 C   0  0  0  0  0  0  0  0  0  0  0  0
   -4.3410   15.3320   -1.7330 C   0  0  0  0  0  0  0  0  0  0  0  0
   -0.8230    8.0270   -8.3020 C   0  0  0  0  0  0  0  0  0  0  0  0
   -2.5140    8.4730   -6.6330 C   0  0  0  0  0  0  0  0  0  0  0  0
   -2.0110    7.6730   -7.6560 C   0  0  0  0  0  0  0  0  0  0  0  0
  1  2  1  0
  2  3  2  3
  2  4  1  0
  4  5  1  0
  3  6  1  0
  6  7  1  6
  5  8  1  0
  6  9  1  0
  8 10  1  0
  8 11  2  0
  9 12  2  0
  9 13  1  0
 10 14  2  0
 13 15  1  0
 10 16  1  0
 11 17  1  0
 12 18  1  0
 13 19  2  0
 18 20  1  0
 16 21  1  0
 17 21  2  0
 17 22  1  0
 18 23  2  0
 19 23  1  0
 22 24  2  0
 21 25  1  0
 24 26  1  0
 25 26  2  0
M  END
