mac-x0433-mac-x0223
     RDKit          3D

 25 26  0  0  0  0  0  0  0  0999 V2000
   -3.1160   15.2800    0.7220 C   0  0  0  0  0  0  0  0  0  0  0  0
   -4.4470   15.1000    0.0680 C   0  0  0  0  0  0  0  0  0  0  0  0
   -5.5600   14.8910    0.8410 C   0  0  0  0  0  0  0  0  0  0  0  0
   -4.5070   15.1470   -1.2720 N   0  0  0  0  0  0  0  0  0  0  0  0
   -5.7030   14.9860   -1.8460 C   0  0  0  0  0  0  0  0  0  0  0  0
   -6.7540   14.7370    0.1710 C   0  0  0  0  0  0  0  0  0  0  0  0
   -8.0210   14.5090    0.9300 C   0  0  0  0  0  0  0  0  0  0  0  0
   -5.6780   15.0260   -3.2270 N   0  0  0  0  0  0  0  0  0  0  0  0
   -6.8380   14.7860   -1.1700 N   0  0  0  0  0  0  0  0  0  0  0  0
   -4.3310   15.0370   -3.8000 C   0  0  0  0  0  0  0  0  0  0  0  0
   -4.3570   14.9860   -5.3320 C   0  0  0  0  0  0  0  0  0  0  0  0
   -3.7310   16.1810   -6.0770 C   0  0  0  0  0  0  0  0  0  0  0  0
   -2.8060   16.9600   -5.2680 O   0  0  0  0  0  0  0  0  0  0  0  0
   -1.7540   16.1800   -4.9790 C   0  0  0  0  0  0  0  0  0  0  0  0
   -0.4390   16.6930   -4.8880 C   0  0  0  0  0  0  0  0  0  0  0  0
   -1.9900   14.8400   -4.7830 C   0  0  0  0  0  0  0  0  0  0  0  0
   -0.2360   18.0310   -5.0910 O   0  0  0  0  0  0  0  0  0  0  0  0
   -0.9750   13.9780   -4.5020 C   0  0  0  0  0  0  0  0  0  0  0  0
    0.6020   15.7970   -4.5990 C   0  0  0  0  0  0  0  0  0  0  0  0
    1.0890   18.3530   -5.4880 C   0  0  0  0  0  0  0  0  0  0  0  0
    0.3200   14.4360   -4.4080 C   0  0  0  0  0  0  0  0  0  0  0  0
    1.3630   13.4140   -4.0960 C   0  0  0  0  0  0  0  0  0  0  0  0
    0.8730   12.4890   -3.0080 C   0  0  0  0  0  0  0  0  0  0  0  0
    0.2900   11.4210   -3.1020 O   0  0  0  0  0  0  0  0  0  0  0  0
    1.1470   12.9950   -1.7920 O   0  0  0  0  0  0  0  0  0  0  0  0
  1  2  1  0
  2  3  2  0
  2  4  1  0
  4  5  2  0
  3  6  1  0
  6  7  1  0
  5  8  1  0
  5  9  1  0
  6  9  2  0
  8 10  1  0
 10 11  1  0
 11 12  1  0
 12 13  1  0
 13 14  1  0
 14 15  2  0
 14 16  1  0
 15 17  1  0
 16 18  2  0
 15 19  1  0
 17 20  1  0
 18 21  1  0
 19 21  2  0
 21 22  1  0
 22 23  1  0
 23 24  2  0
 23 25  1  0
M  END
