mac-x0123-mac-x0568
     RDKit          3D

 17 19  0  0  0  0  0  0  0  0999 V2000
   -3.7930   15.2390    1.7600 N   0  0  0  0  0  0  0  0  0  0  0  0
   -4.4220   14.1410    0.9720 C   0  0  1  0  0  0  0  0  0  0  0  0
   -5.8670   13.8750    1.4990 C   0  0  2  0  0  0  0  0  0  0  0  0
   -4.3060   14.4040   -0.5810 C   0  0  2  0  0  0  0  0  0  0  0  0
   -3.3780   15.5540   -0.9850 C   0  0  0  0  0  0  0  0  0  0  0  0
   -5.5940   14.3110   -1.3490 C   0  0  1  0  0  0  0  0  0  0  0  0
   -6.9960   13.8690    0.4400 C   0  0  2  0  0  0  0  0  0  0  0  0
   -6.4460   14.7620    2.5680 C   0  0  0  0  0  0  0  0  0  0  0  0
   -3.6550   13.3540   -1.3880 N   0  0  0  0  0  0  0  0  0  0  0  0
   -3.5090   16.1540   -2.0420 O   0  0  0  0  0  0  0  0  0  0  0  0
   -2.3270   15.8460   -0.1740 N   0  0  0  0  0  0  0  0  0  0  0  0
   -6.7470   14.8170   -0.6260 N   0  0  0  0  0  0  0  0  0  0  0  0
   -8.2890   14.1920    1.2360 C   0  0  0  0  0  0  0  0  0  0  0  0
   -7.7690   14.9180    2.4280 C   0  0  0  0  0  0  0  0  0  0  0  0
   -5.1220   14.7820   -2.6380 N   0  0  0  0  0  0  0  0  0  0  0  0
   -3.8960   13.9410   -2.7230 C   0  0  0  0  0  0  0  0  0  0  0  0
   -7.9820   15.0700   -1.3490 C   0  0  0  0  0  0  0  0  0  0  0  0
  2  1  1  1
  2  3  1  0
  2  4  1  0
  4  5  1  1
  4  6  1  0
  3  7  1  0
  3  8  1  1
  4  9  1  0
  5 10  2  0
  5 11  1  0
  6 12  1  0
  7 12  1  0
  7 13  1  1
  8 14  2  0
 13 14  1  0
  6 15  1  6
  9 16  1  0
 15 16  1  0
 12 17  1  0
M  END
