mac-x0303-mac-x0161
     RDKit          3D

 31 35  0  0  0  0  0  0  0  0999 V2000
   -8.5710   12.6750    3.0100 N   0  0  0  0  0  0  0  0  0  0  0  0
   -8.9370   14.1770    2.3480 S   0  0  0  0  0  0  0  0  0  0  0  0
   -8.7050   15.2060    3.3370 O   0  0  0  0  0  0  0  0  0  0  0  0
  -10.1880   14.0600    1.6450 O   0  0  0  0  0  0  0  0  0  0  0  0
   -7.7360   14.4800    1.1150 C   0  0  0  0  0  0  0  0  0  0  0  0
   -7.9880   14.3440   -0.2250 N   0  0  0  0  0  0  0  0  0  0  0  0
   -6.5100   14.8660    1.3490 N   0  0  0  0  0  0  0  0  0  0  0  0
   -6.8470   14.6750   -0.8970 C   0  0  0  0  0  0  0  0  0  0  0  0
   -5.9560   15.0010    0.1050 C   0  0  0  0  0  0  0  0  0  0  0  0
   -6.5340   14.7190   -2.2520 C   0  0  0  0  0  0  0  0  0  0  0  0
   -4.6770   15.4110   -0.2170 C   0  0  0  0  0  0  0  0  0  0  0  0
   -3.7490   15.7650    0.7430 N   0  0  0  0  0  0  0  0  0  0  0  0
   -5.2430   15.1200   -2.5670 C   0  0  0  0  0  0  0  0  0  0  0  0
   -4.3440   15.4600   -1.5730 C   0  0  0  0  0  0  0  0  0  0  0  0
   -2.5020   15.7690    0.0320 C   0  0  2  0  0  0  0  0  0  0  0  0
   -2.6880   16.1430   -1.3680 N   0  0  0  0  0  0  0  0  0  0  0  0
   -1.8970   14.3960    0.1990 C   0  0  1  0  0  0  0  0  0  0  0  0
   -2.0460   15.2750   -2.2980 C   0  0  0  0  0  0  0  0  0  0  0  0
   -0.6100   14.3210   -0.6310 C   0  0  1  0  0  0  0  0  0  0  0  0
   -1.4870   14.1220    1.5670 N   0  0  0  0  0  0  0  0  0  0  0  0
   -0.6870   15.0840   -1.8710 N   0  0  0  0  0  0  0  0  0  0  0  0
    0.3000   14.9170    0.3160 N   0  0  0  0  0  0  0  0  0  0  0  0
   -0.0580   14.1390    1.4960 C   0  0  0  0  0  0  0  0  0  0  0  0
    0.1990   14.6140   -2.9390 C   0  0  0  0  0  0  0  0  0  0  0  0
   -0.0340   13.2270   -3.4200 C   0  0  0  0  0  0  0  0  0  0  0  0
   -0.5190   12.6640   -4.5820 C   0  0  0  0  0  0  0  0  0  0  0  0
    0.2960   12.2330   -2.5430 O   0  0  0  0  0  0  0  0  0  0  0  0
    0.0290   11.0070   -3.1230 N   0  0  0  0  0  0  0  0  0  0  0  0
   -0.4530   11.2860   -4.3300 C   0  0  0  0  0  0  0  0  0  0  0  0
   -0.8230   10.3060   -5.1840 O   0  0  0  0  0  0  0  0  0  0  0  0
   -1.8600   10.6680   -6.0860 C   0  0  0  0  0  0  0  0  0  0  0  0
  2  1  1  0
  2  3  2  0
  2  4  2  0
  2  5  1  0
  5  6  1  0
  5  7  2  0
  6  8  1  0
  7  9  1  0
  8  9  2  0
  8 10  1  0
  9 11  1  0
 11 12  1  0
 10 13  2  0
 11 14  2  0
 13 14  1  0
 15 12  1  1
 15 16  1  0
 15 17  1  0
 16 18  1  0
 17 19  1  0
 17 20  1  1
 18 21  1  0
 19 21  1  0
 19 22  1  1
 20 23  1  0
 22 23  1  0
 21 24  1  0
 24 25  1  0
 25 26  2  0
 25 27  1  0
 27 28  1  0
 26 29  1  0
 28 29  2  0
 29 30  1  0
 30 31  1  0
M  END
