mac-x0138-diamond-x0253_0_A
     RDKit          3D

 28 30  0  0  0  0  0  0  0  0999 V2000
   -1.8900   14.7670   -3.5940 C   0  0  0  0  0  0  0  0  0  0  0  0
   -2.7520   14.9910   -2.4640 N   0  0  0  0  0  0  0  0  0  0  0  0
   -4.0590   15.3550   -2.4670 C   0  0  0  0  0  0  0  0  0  0  0  0
   -2.3810   14.8740   -1.1740 C   0  0  0  0  0  0  0  0  0  0  0  0
   -4.5340   15.4850   -1.2370 N   0  0  0  0  0  0  0  0  0  0  0  0
   -3.4680   15.1830   -0.4120 C   0  0  0  0  0  0  0  0  0  0  0  0
   -1.2140   14.5380   -0.7470 N   0  0  0  0  0  0  0  0  0  0  0  0
   -3.2840   15.1340    0.9860 C   0  0  0  0  0  0  0  0  0  0  0  0
   -1.1100   14.4950    0.5600 C   0  0  0  0  0  0  0  0  0  0  0  0
   -4.3120   15.4520    1.8520 N   0  0  0  0  0  0  0  0  0  0  0  0
    0.1640   14.1060    0.7360 N   0  0  0  0  0  0  0  0  0  0  0  0
   -2.0570   14.7650    1.4870 N   0  0  0  0  0  0  0  0  0  0  0  0
    0.5260   13.6220   -0.6180 C   0  0  0  0  0  0  0  0  0  0  0  0
    1.7880   14.1540   -1.2810 C   0  0  0  0  0  0  0  0  0  0  0  0
    1.5350   14.1000   -2.7100 N   0  0  0  0  0  0  0  0  0  0  0  0
    1.0440   13.0950   -3.3640 C   0  0  0  0  0  0  0  0  0  0  0  0
    0.7290   11.9410   -2.7250 O   0  0  0  0  0  0  0  0  0  0  0  0
    0.7600   13.1100   -4.8470 C   0  0  0  0  0  0  0  0  0  0  0  0
    0.4240   11.8410   -5.4290 N   0  0  0  0  0  0  0  0  0  0  0  0
    1.1170   11.5580   -6.5670 C   0  0  0  0  0  0  0  0  0  0  0  0
    2.2300   12.0100   -6.7010 O   0  0  0  0  0  0  0  0  0  0  0  0
    0.4760   10.6730   -7.5780 C   0  0  0  0  0  0  0  0  0  0  0  0
   -0.4970    9.7540   -7.1890 C   0  0  0  0  0  0  0  0  0  0  0  0
    0.8400   10.7530   -8.9300 C   0  0  0  0  0  0  0  0  0  0  0  0
   -1.1090    8.9190   -8.1290 C   0  0  0  0  0  0  0  0  0  0  0  0
    0.2360    9.9260   -9.8720 C   0  0  0  0  0  0  0  0  0  0  0  0
   -2.1580    7.9370   -7.6990 C   0  0  0  0  0  0  0  0  0  0  0  0
   -0.7370    9.0110   -9.4730 C   0  0  0  0  0  0  0  0  0  0  0  0
  1  2  1  0
  2  3  1  0
  2  4  1  0
  3  5  2  0
  4  6  2  0
  5  6  1  0
  4  7  1  0
  6  8  1  0
  7  9  2  0
  8 10  1  0
  9 11  1  0
  8 12  2  0
  9 12  1  0
 11 13  1  0
 13 14  1  0
 14 15  1  0
 15 16  2  3
 16 17  1  0
 16 18  1  0
 18 19  1  0
 19 20  1  0
 20 21  2  0
 20 22  1  0
 22 23  2  0
 22 24  1  0
 23 25  1  0
 24 26  2  0
 25 27  1  0
 25 28  2  0
 26 28  1  0
M  END
