mac-x0321-mac-x0397
     RDKit          3D

 16 17  0  0  0  0  0  0  0  0999 V2000
   -4.0380   15.9600    1.7840 Cl  0  0  0  0  0  0  0  0  0  0  0  0
   -4.5650   15.6060    0.1580 C   0  0  1  0  0  0  0  0  0  0  0  0
   -3.3900   14.9170   -0.5720 C   0  0  0  0  0  0  0  0  0  0  0  0
   -5.7950   14.8980    0.3500 N   0  0  0  0  0  0  0  0  0  0  0  0
   -3.3500   15.1610   -2.0840 C   0  0  1  0  0  0  0  0  0  0  0  0
   -5.7040   13.8260   -0.6320 C   0  0  1  0  0  0  0  0  0  0  0  0
   -5.9470   14.2530    1.6580 C   0  0  2  0  0  0  0  0  0  0  0  0
   -2.0160   14.7090   -2.6700 C   0  0  0  0  0  0  0  0  0  0  0  0
   -6.1180   15.0380    2.8420 N   0  0  0  0  0  0  0  0  0  0  0  0
   -5.7590   14.1530   -2.1420 C   0  0  2  0  0  0  0  0  0  0  0  0
   -4.4820   14.5430   -2.8800 C   0  0  0  0  0  0  0  0  0  0  0  0
   -4.4370   13.1060   -0.1750 C   0  0  0  0  0  0  0  0  0  0  0  0
   -4.4430   13.3010    1.5800 S   0  0  0  0  0  0  0  0  0  0  0  0
   -1.0160   14.5530   -1.7860 O   0  0  0  0  0  0  0  0  0  0  0  0
   -1.8060   14.4900   -3.8540 O   0  0  0  0  0  0  0  0  0  0  0  0
   -7.0700   15.3270   -2.3800 Cl  0  0  0  0  0  0  0  0  0  0  0  0
  2  1  1  1
  2  3  1  0
  2  4  1  0
  3  5  1  0
  4  6  1  0
  4  7  1  0
  5  8  1  6
  7  9  1  1
  6 10  1  0
  5 11  1  0
 10 11  1  0
  6 12  1  6
  7 13  1  0
 12 13  2  0
  8 14  1  0
  8 15  2  0
 10 16  1  1
M  END
