mac-x0180-mac-x0385
     RDKit          3D

 15 15  0  0  0  0  0  0  0  0999 V2000
   -7.7390   14.4960    1.5460 C   0  0  0  0  0  0  0  0  0  0  0  0
   -6.7750   14.7160    0.4040 C   0  0  0  0  0  0  0  0  0  0  0  0
   -7.1860   14.7790   -0.7500 O   0  0  0  0  0  0  0  0  0  0  0  0
   -5.4610   14.8320    0.8120 N   0  0  0  0  0  0  0  0  0  0  0  0
   -4.3560   14.8350   -0.0650 C   0  0  0  0  0  0  0  0  0  0  0  0
   -3.0730   14.8360    0.5330 C   0  0  0  0  0  0  0  0  0  0  0  0
   -4.4870   14.8360   -1.4480 C   0  0  0  0  0  0  0  0  0  0  0  0
   -3.0270   14.8600    1.9590 N   0  0  0  0  0  0  0  0  0  0  0  0
   -1.8940   14.8210   -0.2580 C   0  0  0  0  0  0  0  0  0  0  0  0
   -3.3520   14.8330   -2.2510 C   0  0  0  0  0  0  0  0  0  0  0  0
   -0.5160   14.8130    0.4000 C   0  0  0  0  0  0  0  0  0  0  0  0
   -2.0700   14.8250   -1.6790 C   0  0  0  0  0  0  0  0  0  0  0  0
   -0.9730   14.8330   -2.6810 C   0  0  0  0  0  0  0  0  0  0  0  0
   -1.1050   14.7420   -3.8870 O   0  0  0  0  0  0  0  0  0  0  0  0
    0.2330   14.9760   -2.1140 O   0  0  0  0  0  0  0  0  0  0  0  0
  1  2  1  0
  2  3  2  0
  2  4  1  0
  4  5  1  0
  5  6  2  0
  5  7  1  0
  6  8  1  0
  6  9  1  0
  7 10  2  0
  9 11  1  0
  9 12  2  0
 10 12  1  0
 12 13  1  0
 13 14  2  0
 13 15  1  0
M  END
