mac-x0341-diamond-x0962_1_A
     RDKit          3D

 13 14  0  0  0  0  0  0  0  0999 V2000
   -6.9870   14.6380    2.3940 N   0  0  0  0  0  0  0  0  0  0  0  0
   -6.1520   14.7120    1.3280 C   0  0  0  0  0  0  0  0  0  0  0  0
   -4.8810   14.7290    1.5320 N   0  0  0  0  0  0  0  0  0  0  0  0
   -6.6950   14.7770    0.0760 N   0  0  0  0  0  0  0  0  0  0  0  0
   -5.9400   15.0460   -1.0420 C   0  0  0  0  0  0  0  0  0  0  0  0
   -4.0170   14.7880    0.4430 C   0  0  0  0  0  0  0  0  0  0  0  0
   -6.4580   15.3310   -2.1140 O   0  0  0  0  0  0  0  0  0  0  0  0
   -4.4730   14.9460   -0.8630 C   0  0  0  0  0  0  0  0  0  0  0  0
   -2.6470   14.6740    0.6830 C   0  0  0  0  0  0  0  0  0  0  0  0
   -1.7400   14.7140   -0.3710 C   0  0  0  0  0  0  0  0  0  0  0  0
   -3.5740   14.9960   -1.9300 C   0  0  0  0  0  0  0  0  0  0  0  0
   -2.2100   14.8750   -1.6760 C   0  0  0  0  0  0  0  0  0  0  0  0
   -3.9830   15.1570   -3.2400 N   0  0  0  0  0  0  0  0  0  0  0  0
  1  2  1  0
  2  3  2  0
  2  4  1  0
  4  5  1  0
  3  6  1  0
  5  7  2  0
  5  8  1  0
  6  8  2  0
  6  9  1  0
  9 10  2  0
  8 11  1  0
 10 12  1  0
 11 12  2  0
 11 13  1  0
M  END
