mac-x0527-diamond-x0895_1_A
     RDKit          3D

 18 19  0  0  0  0  0  0  0  0999 V2000
   -3.5390   15.2130   -3.7380 O   0  0  0  0  0  0  0  0  0  0  0  0
   -2.9290   14.9780   -2.6980 C   0  0  0  0  0  0  0  0  0  0  0  0
   -1.5980   14.6750   -2.7070 N   0  0  0  0  0  0  0  0  0  0  0  0
   -3.6680   15.0210   -1.4040 C   0  0  0  0  0  0  0  0  0  0  0  0
   -0.8180   14.8080   -3.9260 C   0  0  0  0  0  0  0  0  0  0  0  0
   -4.9890   15.2020   -1.5160 C   0  0  0  0  0  0  0  0  0  0  0  0
   -3.1200   14.8850   -0.0410 N   0  0  0  0  0  0  0  0  0  0  0  0
   -1.8680   14.8030    0.2490 O   0  0  0  0  0  0  0  0  0  0  0  0
   -0.8120   13.5250   -4.7310 C   0  0  0  0  0  0  0  0  0  0  0  0
   -5.8030   15.2600   -0.4450 N   0  0  0  0  0  0  0  0  0  0  0  0
   -3.9390   14.8370    0.9800 C   0  0  0  0  0  0  0  0  0  0  0  0
   -1.9920   12.8130   -4.9440 C   0  0  0  0  0  0  0  0  0  0  0  0
    0.3770   13.0250   -5.2760 C   0  0  0  0  0  0  0  0  0  0  0  0
   -5.3990   14.9160    0.7900 C   0  0  0  0  0  0  0  0  0  0  0  0
   -6.1570   14.6820    1.6990 O   0  0  0  0  0  0  0  0  0  0  0  0
   -1.9930   11.6210   -5.6710 C   0  0  0  0  0  0  0  0  0  0  0  0
    0.3770   11.8380   -6.0080 C   0  0  0  0  0  0  0  0  0  0  0  0
   -0.8070   11.1320   -6.2020 C   0  0  0  0  0  0  0  0  0  0  0  0
  1  2  2  0
  2  3  1  0
  2  4  1  0
  3  5  1  0
  4  6  2  0
  4  7  1  0
  7  8  1  0
  5  9  1  0
  6 10  1  0
  7 11  2  0
  9 12  2  0
  9 13  1  0
 10 14  1  0
 11 14  1  0
 14 15  2  0
 12 16  1  0
 13 17  2  0
 16 18  2  0
 17 18  1  0
M  CHG  2   7   1   8  -1
M  END
