mac-x0182-mac-x0231
     RDKit          3D

 26 29  0  0  0  0  0  0  0  0999 V2000
    1.6040   11.7110   -6.9910 O   0  0  0  0  0  0  0  0  0  0  0  0
    0.5670   11.4410   -6.4220 C   0  0  0  0  0  0  0  0  0  0  0  0
    0.0220   12.1000   -5.3630 N   0  0  0  0  0  0  0  0  0  0  0  0
   -0.2970   10.3020   -6.7550 C   0  0  0  0  0  0  0  0  0  0  0  0
   -0.8750   11.0620   -4.3810 S   0  0  2  0  0  0  0  0  0  0  0  0
   -1.1510    9.9700   -5.7020 C   0  0  0  0  0  0  0  0  0  0  0  0
   -0.3190    9.5940   -7.9400 C   0  0  0  0  0  0  0  0  0  0  0  0
   -2.1140   11.7400   -4.0950 O   0  0  0  0  0  0  0  0  0  0  0  0
    0.1830   10.7170   -3.3650 N   0  0  0  0  0  0  0  0  0  0  0  0
   -2.0540    8.9370   -5.7770 C   0  0  0  0  0  0  0  0  0  0  0  0
   -1.2300    8.5380   -8.0460 C   0  0  0  0  0  0  0  0  0  0  0  0
    0.8920   11.8470   -2.8950 C   0  0  0  0  0  0  0  0  0  0  0  0
   -2.0870    8.2150   -6.9720 C   0  0  0  0  0  0  0  0  0  0  0  0
    0.8810   12.1680   -1.6970 O   0  0  0  0  0  0  0  0  0  0  0  0
    1.6670   12.6580   -3.9320 C   0  0  0  0  0  0  0  0  0  0  0  0
    1.1560   14.0680   -4.2140 C   0  0  0  0  0  0  0  0  0  0  0  0
   -0.2570   14.3800   -4.6450 C   0  0  0  0  0  0  0  0  0  0  0  0
    2.0340   15.0010   -4.0410 N   0  0  0  0  0  0  0  0  0  0  0  0
   -0.6120   15.7210   -4.7640 C   0  0  0  0  0  0  0  0  0  0  0  0
    1.6600   16.2850   -4.2590 N   0  0  0  0  0  0  0  0  0  0  0  0
   -1.2340   13.4270   -4.9270 C   0  0  0  0  0  0  0  0  0  0  0  0
    0.3950   16.7450   -4.4850 C   0  0  0  0  0  0  0  0  0  0  0  0
   -1.9070   16.1050   -5.1440 C   0  0  0  0  0  0  0  0  0  0  0  0
   -2.5270   13.7930   -5.3100 C   0  0  0  0  0  0  0  0  0  0  0  0
    0.1100   17.9340   -4.4670 O   0  0  0  0  0  0  0  0  0  0  0  0
   -2.8690   15.1340   -5.4180 C   0  0  0  0  0  0  0  0  0  0  0  0
  1  2  2  0
  2  3  1  0
  2  4  1  0
  5  3  1  6
  4  6  2  0
  5  6  1  0
  4  7  1  0
  5  8  2  0
  5  9  2  0
  6 10  1  0
  7 11  2  0
  9 12  1  0
 10 13  2  0
 11 13  1  0
 12 14  2  0
 12 15  1  0
 15 16  1  0
 16 17  1  0
 16 18  2  0
 17 19  2  0
 18 20  1  0
 17 21  1  0
 19 22  1  0
 20 22  1  0
 19 23  1  0
 21 24  2  0
 22 25  2  0
 23 26  2  0
 24 26  1  0
M  END
