mac-x0138-mac-x0277
     RDKit          3D

 26 28  0  0  0  0  0  0  0  0999 V2000
   -1.8910   14.5620   -3.3880 C   0  0  0  0  0  0  0  0  0  0  0  0
   -2.8080   14.8260   -2.3340 N   0  0  0  0  0  0  0  0  0  0  0  0
   -4.1290   15.1190   -2.4120 C   0  0  0  0  0  0  0  0  0  0  0  0
   -2.4670   14.8230   -1.0420 C   0  0  0  0  0  0  0  0  0  0  0  0
   -4.6510   15.3050   -1.2160 N   0  0  0  0  0  0  0  0  0  0  0  0
   -3.5970   15.1180   -0.3460 C   0  0  0  0  0  0  0  0  0  0  0  0
   -1.2870   14.5900   -0.5690 N   0  0  0  0  0  0  0  0  0  0  0  0
   -3.4560   15.1700    1.0460 C   0  0  0  0  0  0  0  0  0  0  0  0
   -1.2380   14.6670    0.7420 C   0  0  0  0  0  0  0  0  0  0  0  0
   -4.5160   15.4710    1.8660 N   0  0  0  0  0  0  0  0  0  0  0  0
    0.0310   14.4580    1.0630 N   0  0  0  0  0  0  0  0  0  0  0  0
   -2.2310   14.9260    1.5950 N   0  0  0  0  0  0  0  0  0  0  0  0
    0.7250   14.8920   -0.1640 C   0  0  0  0  0  0  0  0  0  0  0  0
    1.2710   13.7430   -1.0140 C   0  0  0  0  0  0  0  0  0  0  0  0
    1.1760   13.8790   -2.4300 N   0  0  0  0  0  0  0  0  0  0  0  0
    1.0730   12.8910   -3.2340 C   0  0  0  0  0  0  0  0  0  0  0  0
    0.9920   11.6280   -2.7690 O   0  0  0  0  0  0  0  0  0  0  0  0
    1.0220   13.0460   -4.7030 C   0  0  0  0  0  0  0  0  0  0  0  0
    0.4740   14.4300   -4.8540 C   0  0  0  0  0  0  0  0  0  0  0  0
   -0.8620   14.5880   -5.1710 C   0  0  0  0  0  0  0  0  0  0  0  0
    1.2780   15.5640   -4.6580 C   0  0  0  0  0  0  0  0  0  0  0  0
   -1.4160   15.8600   -5.2950 C   0  0  0  0  0  0  0  0  0  0  0  0
    0.7260   16.8440   -4.7880 C   0  0  0  0  0  0  0  0  0  0  0  0
   -3.0930   15.9480   -5.6890 Cl  0  0  0  0  0  0  0  0  0  0  0  0
   -0.6250   16.9860   -5.1080 C   0  0  0  0  0  0  0  0  0  0  0  0
   -1.2780   18.5740   -5.2650 Cl  0  0  0  0  0  0  0  0  0  0  0  0
  1  2  1  0
  2  3  1  0
  2  4  1  0
  3  5  2  0
  4  6  2  0
  5  6  1  0
  4  7  1  0
  6  8  1  0
  7  9  2  0
  8 10  1  0
  9 11  1  0
  8 12  2  0
  9 12  1  0
 11 13  1  0
 13 14  1  0
 14 15  1  0
 15 16  2  3
 16 17  1  0
 16 18  1  0
 18 19  1  0
 19 20  2  0
 19 21  1  0
 20 22  1  0
 21 23  2  0
 22 24  1  0
 22 25  2  0
 23 25  1  0
 25 26  1  0
M  END
