mac-x0402-mac-x0115
     RDKit          3D

 24 26  0  0  0  0  0  0  0  0999 V2000
   -2.3550   12.4830   -2.5670 Cl  0  0  0  0  0  0  0  0  0  0  0  0
   -2.5800   14.2060   -2.1970 C   0  0  1  0  0  0  0  0  0  0  0  0
   -3.9520   14.6800   -2.7040 C   0  0  0  0  0  0  0  0  0  0  0  0
   -2.1080   14.7970   -0.8070 C   0  0  1  0  0  0  0  0  0  0  0  0
   -3.4260   14.9430    0.0180 C   0  0  0  0  0  0  0  0  0  0  0  0
   -4.9320   15.0810   -1.8830 C   0  0  0  0  0  0  0  0  0  0  0  0
   -1.0170   14.2350    0.1560 C   0  0  0  0  0  0  0  0  0  0  0  0
   -1.2920   15.9130   -1.4360 C   0  0  0  0  0  0  0  0  0  0  0  0
   -1.2340   13.9800    1.3390 O   0  0  0  0  0  0  0  0  0  0  0  0
   -4.7090   15.0570   -0.4970 C   0  0  0  0  0  0  0  0  0  0  0  0
   -3.5810   14.9420    1.7190 S   0  0  0  0  0  0  0  0  0  0  0  0
   -0.1260   15.3440   -2.2030 N   0  0  0  0  0  0  0  0  0  0  0  0
    0.2820   14.0840   -0.3130 N   0  0  0  0  0  0  0  0  0  0  0  0
   -0.2520   14.9930   -3.6460 C   0  0  0  0  0  0  0  0  0  0  0  0
   -5.3010   15.0730    1.5900 C   0  0  0  0  0  0  0  0  0  0  0  0
   -5.7610   15.1300    0.3730 N   0  0  0  0  0  0  0  0  0  0  0  0
    0.7750   14.5600   -1.4870 C   0  0  0  0  0  0  0  0  0  0  0  0
   -6.1140   15.1140    2.6630 N   0  0  0  0  0  0  0  0  0  0  0  0
    0.4520   15.8720   -4.6760 C   0  0  0  0  0  0  0  0  0  0  0  0
    2.3450   14.1410   -1.9130 S   0  0  0  0  0  0  0  0  0  0  0  0
   -0.5660   16.4080   -5.5210 O   0  0  0  0  0  0  0  0  0  0  0  0
   -0.3940   17.7700   -5.9070 C   0  0  0  0  0  0  0  0  0  0  0  0
   -1.3890   18.5630   -5.0870 C   0  0  0  0  0  0  0  0  0  0  0  0
    1.0300   18.2360   -5.6630 C   0  0  0  0  0  0  0  0  0  0  0  0
  2  1  1  1
  2  3  1  0
  2  4  1  0
  4  5  1  0
  3  6  2  0
  4  7  1  0
  4  8  1  6
  7  9  2  0
  5 10  2  0
  6 10  1  0
  5 11  1  0
  8 12  1  0
  7 13  1  0
 12 14  1  0
 11 15  1  0
 10 16  1  0
 15 16  2  0
 12 17  1  0
 13 17  1  0
 15 18  1  0
 14 19  1  0
 17 20  2  0
 19 21  1  0
 21 22  1  0
 22 23  1  0
 22 24  1  0
M  END
