mac-x0365-diamond-x0950_0_A
     RDKit          3D

 19 19  0  0  0  0  0  0  0  0999 V2000
   -0.7140   15.2850   -1.2590 O   0  0  0  0  0  0  0  0  0  0  0  0
   -1.7170   14.4410   -1.7500 C   0  0  0  0  0  0  0  0  0  0  0  0
   -1.6020   14.4500   -3.1670 O   0  0  0  0  0  0  0  0  0  0  0  0
   -1.4680   13.0450   -1.1970 C   0  0  0  0  0  0  0  0  0  0  0  0
   -3.1390   14.7420   -1.3410 C   0  0  0  0  0  0  0  0  0  0  0  0
   -0.7480   12.1190   -2.1240 C   0  0  0  0  0  0  0  0  0  0  0  0
   -4.1680   14.8670   -2.2840 C   0  0  0  0  0  0  0  0  0  0  0  0
   -3.4530   14.8680    0.0220 C   0  0  0  0  0  0  0  0  0  0  0  0
    0.5580   12.6230   -2.3450 O   0  0  0  0  0  0  0  0  0  0  0  0
   -5.4680   15.0880   -1.8620 C   0  0  0  0  0  0  0  0  0  0  0  0
   -4.7610   15.0940    0.4390 C   0  0  0  0  0  0  0  0  0  0  0  0
   -6.4400   15.1890   -2.7710 F   0  0  0  0  0  0  0  0  0  0  0  0
    1.0930   11.8580   -3.2890 C   0  0  0  0  0  0  0  0  0  0  0  0
   -5.7670   15.1920   -0.5170 C   0  0  0  0  0  0  0  0  0  0  0  0
   -7.0660   15.3860   -0.1630 O   0  0  0  0  0  0  0  0  0  0  0  0
    1.6890   12.6630   -4.4320 C   0  0  1  0  0  0  0  0  0  0  0  0
    1.0770   10.6490   -3.2280 O   0  0  0  0  0  0  0  0  0  0  0  0
    3.1760   12.4070   -4.4720 C   0  0  0  0  0  0  0  0  0  0  0  0
    1.1070   12.2820   -5.6800 O   0  0  0  0  0  0  0  0  0  0  0  0
  2  1  1  0
  2  3  1  0
  2  4  1  0
  2  5  1  0
  4  6  1  0
  5  7  2  0
  5  8  1  0
  6  9  1  0
  7 10  1  0
  8 11  2  0
 10 12  1  0
  9 13  1  0
 10 14  2  0
 11 14  1  0
 14 15  1  0
 13 16  1  0
 13 17  2  0
 16 18  1  6
 16 19  1  0
M  END
