mac-x0188-mac-x0344
     RDKit          3D

 25 28  0  0  0  0  0  0  0  0999 V2000
    0.8910   13.5660   -4.7690 C   0  0  0  0  0  0  0  0  0  0  0  0
    0.6610   12.5690   -3.6270 C   0  0  0  0  0  0  0  0  0  0  0  0
    0.4470   11.1720   -4.0210 C   0  0  0  0  0  0  0  0  0  0  0  0
   -0.3980   14.0500   -4.4920 C   0  0  0  0  0  0  0  0  0  0  0  0
    0.4810   12.8260   -2.3610 N   0  0  0  0  0  0  0  0  0  0  0  0
   -1.3900   14.2320   -5.3620 O   0  0  0  0  0  0  0  0  0  0  0  0
   -0.7190   14.3230   -3.2220 C   0  0  0  0  0  0  0  0  0  0  0  0
    0.3370   14.1440   -2.2470 C   0  0  0  0  0  0  0  0  0  0  0  0
    0.3990   10.3320   -3.1390 O   0  0  0  0  0  0  0  0  0  0  0  0
    0.2520   11.1000   -5.3750 N   0  0  0  0  0  0  0  0  0  0  0  0
   -2.4800   14.6270   -4.6060 N   0  0  0  0  0  0  0  0  0  0  0  0
   -2.0680   14.6590   -3.3100 C   0  0  0  0  0  0  0  0  0  0  0  0
    0.9250   14.9540   -1.5460 O   0  0  0  0  0  0  0  0  0  0  0  0
   -2.9700   14.9720   -2.2400 C   0  0  0  0  0  0  0  0  0  0  0  0
   -0.7260   10.3540   -6.0300 C   0  0  0  0  0  0  0  0  0  0  0  0
   -4.2680   15.3710   -2.5290 C   0  0  0  0  0  0  0  0  0  0  0  0
   -2.5550   14.8630   -0.9130 C   0  0  0  0  0  0  0  0  0  0  0  0
   -0.4120    9.8680   -7.3000 C   0  0  0  0  0  0  0  0  0  0  0  0
   -1.9730   10.0780   -5.4740 C   0  0  0  0  0  0  0  0  0  0  0  0
   -5.1500   15.6670   -1.4970 C   0  0  0  0  0  0  0  0  0  0  0  0
   -3.4350   15.1590    0.1200 C   0  0  0  0  0  0  0  0  0  0  0  0
   -1.3420    9.1080   -8.0080 C   0  0  0  0  0  0  0  0  0  0  0  0
   -2.9040    9.3150   -6.1830 C   0  0  0  0  0  0  0  0  0  0  0  0
   -4.7280   15.5590   -0.1770 C   0  0  0  0  0  0  0  0  0  0  0  0
   -2.5870    8.8300   -7.4510 C   0  0  0  0  0  0  0  0  0  0  0  0
  1  2  1  0
  2  3  1  0
  1  4  1  0
  2  5  2  0
  4  6  1  0
  4  7  2  0
  5  8  1  0
  7  8  1  0
  3  9  2  0
  3 10  1  0
  6 11  1  0
  7 12  1  0
 11 12  2  0
  8 13  2  0
 12 14  1  0
 10 15  1  0
 14 16  2  0
 14 17  1  0
 15 18  2  0
 15 19  1  0
 16 20  1  0
 17 21  2  0
 18 22  1  0
 19 23  2  0
 20 24  2  0
 21 24  1  0
 22 25  2  0
 23 25  1  0
M  END
