mac-x0163-mac-x0436
     RDKit          3D

 32 36  0  0  0  0  0  0  0  0999 V2000
   -4.1370   15.4910   -1.1490 Cl  0  0  0  0  0  0  0  0  0  0  0  0
   -2.6550   15.1280   -0.3300 C   0  0  0  0  0  0  0  0  0  0  0  0
   -2.6580   15.1020    1.0470 C   0  0  0  0  0  0  0  0  0  0  0  0
   -1.4490   14.8520   -0.9790 C   0  0  0  0  0  0  0  0  0  0  0  0
   -3.8250   15.3790    1.7630 N   0  0  0  0  0  0  0  0  0  0  0  0
   -0.3350   14.5760   -0.2670 N   0  0  0  0  0  0  0  0  0  0  0  0
   -1.5690   14.8160    1.7640 N   0  0  0  0  0  0  0  0  0  0  0  0
   -1.3940   14.8510   -2.3750 N   0  0  0  0  0  0  0  0  0  0  0  0
   -0.4560   14.5720    1.0690 C   0  0  0  0  0  0  0  0  0  0  0  0
   -2.6770   14.5140   -2.9550 C   0  0  0  0  0  0  0  0  0  0  0  0
   -0.7980   15.9750   -3.0830 C   0  0  0  0  0  0  0  0  0  0  0  0
   -2.5500   14.0410   -4.3920 C   0  0  2  0  0  0  0  0  0  0  0  0
   -0.5140   15.6490   -4.5520 C   0  0  0  0  0  0  0  0  0  0  0  0
   -4.0070   13.7930   -4.9030 C   0  0  0  0  0  0  0  0  0  0  0  0
   -2.5100   12.5360   -4.6650 C   0  0  0  0  0  0  0  0  0  0  0  0
   -1.6160   14.8620   -5.2790 C   0  0  0  0  0  0  0  0  0  0  0  0
   -1.6970   11.5850   -5.1310 C   0  0  0  0  0  0  0  0  0  0  0  0
   -3.9530   12.4350   -4.1820 C   0  0  0  0  0  0  0  0  0  0  0  0
   -0.2870   11.7760   -5.6650 C   0  0  0  0  0  0  0  0  0  0  0  0
   -2.1660   10.2940   -5.1750 N   0  0  0  0  0  0  0  0  0  0  0  0
    0.6730   12.8910   -5.2980 C   0  0  0  0  0  0  0  0  0  0  0  0
   -1.7600    9.5190   -6.2720 C   0  0  0  0  0  0  0  0  0  0  0  0
    0.2110   10.9590   -6.5400 N   0  0  0  0  0  0  0  0  0  0  0  0
    0.5190   13.2610   -3.8380 C   0  0  0  0  0  0  0  0  0  0  0  0
   -0.5700    9.8670   -6.9430 C   0  0  0  0  0  0  0  0  0  0  0  0
   -2.5100    8.4240   -6.6980 C   0  0  0  0  0  0  0  0  0  0  0  0
    1.1990   12.3150   -2.9050 C   0  0  0  0  0  0  0  0  0  0  0  0
   -0.1480    9.1140   -8.0310 C   0  0  0  0  0  0  0  0  0  0  0  0
   -2.0780    7.6750   -7.7910 C   0  0  0  0  0  0  0  0  0  0  0  0
    0.6740   11.0790   -2.8850 O   0  0  0  0  0  0  0  0  0  0  0  0
    2.1340   12.6030   -2.1930 O   0  0  0  0  0  0  0  0  0  0  0  0
   -0.8980    8.0190   -8.4560 C   0  0  0  0  0  0  0  0  0  0  0  0
  1  2  1  0
  2  3  2  0
  2  4  1  0
  3  5  1  0
  4  6  2  0
  3  7  1  0
  4  8  1  0
  6  9  1  0
  7  9  2  0
  8 10  1  0
  8 11  1  0
 12 10  1  1
 11 13  1  0
 12 14  1  0
 12 15  1  0
 12 16  1  0
 13 16  1  0
 15 17  2  3
 14 18  1  0
 15 18  1  0
 17 19  1  0
 17 20  1  0
 19 21  1  0
 20 22  1  0
 19 23  2  0
 21 24  1  0
 22 25  2  0
 23 25  1  0
 22 26  1  0
 24 27  1  0
 25 28  1  0
 26 29  2  0
 27 30  1  0
 27 31  2  0
 28 32  2  0
 29 32  1  0
M  END
