mac-x0212-mac-x0394
     RDKit          3D

 24 26  0  0  0  0  0  0  0  0999 V2000
   -6.3940   12.8190    1.3860 C   0  0  0  0  0  0  0  0  0  0  0  0
   -6.8440   14.5130    1.0510 S   0  0  0  0  0  0  0  0  0  0  0  0
   -7.6490   14.9780    2.1600 O   0  0  0  0  0  0  0  0  0  0  0  0
   -7.3360   14.6090   -0.3050 O   0  0  0  0  0  0  0  0  0  0  0  0
   -5.3150   15.2690    1.2140 N   0  0  0  0  0  0  0  0  0  0  0  0
   -4.4320   14.8820    0.1670 C   0  0  0  0  0  0  0  0  0  0  0  0
   -3.2940   14.1840    0.5290 C   0  0  0  0  0  0  0  0  0  0  0  0
   -4.6930   15.1640   -1.1780 C   0  0  0  0  0  0  0  0  0  0  0  0
   -2.4140   13.7210   -0.4430 C   0  0  0  0  0  0  0  0  0  0  0  0
   -3.8000   14.6930   -2.1570 C   0  0  0  0  0  0  0  0  0  0  0  0
   -2.6460   13.9410   -1.8010 C   0  0  0  0  0  0  0  0  0  0  0  0
   -1.7180   13.3690   -2.8920 C   0  0  2  0  0  0  0  0  0  0  0  0
   -0.1920   12.9420   -2.7230 C   0  0  0  0  0  0  0  0  0  0  0  0
   -2.0140   13.9400   -4.1790 O   0  0  0  0  0  0  0  0  0  0  0  0
   -0.0570   11.5390   -2.8770 O   0  0  0  0  0  0  0  0  0  0  0  0
    0.2900   13.1070   -1.3700 O   0  0  0  0  0  0  0  0  0  0  0  0
    0.7760   13.6300   -3.7160 C   0  0  0  0  0  0  0  0  0  0  0  0
   -1.2030   14.9430   -4.4900 C   0  0  0  0  0  0  0  0  0  0  0  0
    0.1640   14.8710   -4.2960 C   0  0  0  0  0  0  0  0  0  0  0  0
   -1.8310   16.0510   -5.0120 C   0  0  0  0  0  0  0  0  0  0  0  0
   -1.0730   17.1410   -5.3580 C   0  0  0  0  0  0  0  0  0  0  0  0
    0.9350   15.9710   -4.6460 C   0  0  0  0  0  0  0  0  0  0  0  0
    0.2990   17.0980   -5.1750 C   0  0  0  0  0  0  0  0  0  0  0  0
    1.1760   18.4800   -5.6280 Cl  0  0  0  0  0  0  0  0  0  0  0  0
  1  2  1  0
  2  3  2  0
  2  4  2  0
  2  5  1  0
  5  6  1  0
  6  7  2  0
  6  8  1  0
  7  9  1  0
  8 10  2  0
  9 11  2  0
 10 11  1  0
 12 11  1  1
 12 13  1  0
 12 14  1  0
 13 15  1  0
 13 16  1  0
 13 17  1  0
 14 18  1  0
 17 19  1  0
 18 19  2  0
 18 20  1  0
 20 21  2  0
 19 22  1  0
 21 23  1  0
 22 23  2  0
 23 24  1  0
M  END
