mac-x0354-diamond-x0689_0_A
     RDKit          3D

 25 27  0  0  0  0  0  0  0  0999 V2000
    0.7630   10.8100   -8.3420 C   0  0  0  0  0  0  0  0  0  0  0  0
    0.9700   11.3940   -7.0350 N   0  0  0  0  0  0  0  0  0  0  0  0
    1.9470   12.2740   -6.8530 N   0  0  0  0  0  0  0  0  0  0  0  0
    0.2580   11.1490   -5.9020 C   0  0  0  0  0  0  0  0  0  0  0  0
    1.8800   12.6120   -5.6060 C   0  0  0  0  0  0  0  0  0  0  0  0
    0.8520   11.9570   -4.9360 C   0  0  0  0  0  0  0  0  0  0  0  0
   -0.8390   10.2100   -5.9100 C   0  0  0  0  0  0  0  0  0  0  0  0
    0.6460   12.2310   -3.5700 C   0  0  0  0  0  0  0  0  0  0  0  0
   -0.6310    8.9480   -6.4800 C   0  0  0  0  0  0  0  0  0  0  0  0
   -2.0760   10.5420   -5.3710 C   0  0  0  0  0  0  0  0  0  0  0  0
    0.9370   13.4690   -3.4140 N   0  0  0  0  0  0  0  0  0  0  0  0
    0.2210   11.2680   -2.7190 O   0  0  0  0  0  0  0  0  0  0  0  0
   -1.6660    8.0210   -6.5070 C   0  0  0  0  0  0  0  0  0  0  0  0
   -3.1110    9.6110   -5.4000 C   0  0  0  0  0  0  0  0  0  0  0  0
    0.9330   14.3710   -2.2950 C   0  0  0  0  0  0  0  0  0  0  0  0
   -2.9060    8.3520   -5.9670 C   0  0  0  0  0  0  0  0  0  0  0  0
    0.7910   13.6180   -1.0220 C   0  0  0  0  0  0  0  0  0  0  0  0
   -0.3880   14.0700   -0.2580 C   0  0  0  0  0  0  0  0  0  0  0  0
   -1.5150   14.4710   -0.9110 C   0  0  0  0  0  0  0  0  0  0  0  0
   -0.4520   14.1200    1.1140 C   0  0  0  0  0  0  0  0  0  0  0  0
   -2.6180   14.8910   -0.2940 N   0  0  0  0  0  0  0  0  0  0  0  0
   -1.5370   14.5310    1.7830 N   0  0  0  0  0  0  0  0  0  0  0  0
   -2.5820   14.9070    1.0380 C   0  0  0  0  0  0  0  0  0  0  0  0
   -3.6850   15.3370    1.7370 N   0  0  0  0  0  0  0  0  0  0  0  0
   -4.9320   14.9550    1.1380 C   0  0  0  0  0  0  0  0  0  0  0  0
  1  2  1  0
  2  3  1  0
  2  4  1  0
  3  5  2  0
  4  6  2  0
  5  6  1  0
  4  7  1  0
  6  8  1  0
  7  9  2  0
  7 10  1  0
  8 11  2  3
  8 12  1  0
  9 13  1  0
 10 14  2  0
 11 15  1  0
 13 16  2  0
 14 16  1  0
 15 17  1  0
 17 18  1  0
 18 19  2  0
 18 20  1  0
 19 21  1  0
 20 22  2  0
 21 23  2  0
 22 23  1  0
 23 24  1  0
 24 25  1  0
M  END
