mac-x0546-mac-x0116
     RDKit          3D

 32 36  0  0  0  0  0  0  0  0999 V2000
   -4.4470   15.4020   -6.1570 C   0  0  0  0  0  0  0  0  0  0  0  0
   -3.5570   16.5170   -6.1320 O   0  0  0  0  0  0  0  0  0  0  0  0
   -2.3810   16.3270   -5.4760 C   0  0  0  0  0  0  0  0  0  0  0  0
   -1.9050   15.1380   -5.0760 C   0  0  0  0  0  0  0  0  0  0  0  0
   -1.6370   17.5630   -5.2300 C   0  0  0  0  0  0  0  0  0  0  0  0
   -0.6210   15.0900   -4.3520 C   0  0  2  0  0  0  0  0  0  0  0  0
   -0.3340   17.5720   -4.8890 C   0  0  0  0  0  0  0  0  0  0  0  0
    0.2630   16.2350   -4.7900 C   0  0  0  0  0  0  0  0  0  0  0  0
    0.3960   14.0150   -4.5240 C   0  0  0  0  0  0  0  0  0  0  0  0
    0.1620   12.5710   -4.2870 C   0  0  0  0  0  0  0  0  0  0  0  0
    1.4860   15.9320   -5.0320 N   0  0  0  0  0  0  0  0  0  0  0  0
    1.5420   14.5690   -4.8620 C   0  0  0  0  0  0  0  0  0  0  0  0
    0.2810   12.4970   -2.8080 C   0  0  0  0  0  0  0  0  0  0  0  0
    0.4000   13.6600   -2.2520 N   0  0  0  0  0  0  0  0  0  0  0  0
    0.2570   11.2740   -2.2370 O   0  0  0  0  0  0  0  0  0  0  0  0
    0.5490   13.9360   -0.8350 C   0  0  0  0  0  0  0  0  0  0  0  0
   -0.6210   14.2340   -0.0640 N   0  0  0  0  0  0  0  0  0  0  0  0
   -1.8860   14.5530   -0.4780 C   0  0  0  0  0  0  0  0  0  0  0  0
   -0.6090   14.2290    1.3000 C   0  0  0  0  0  0  0  0  0  0  0  0
   -2.3700   14.6850   -1.7260 N   0  0  0  0  0  0  0  0  0  0  0  0
   -2.5860   14.7100    0.7090 C   0  0  0  0  0  0  0  0  0  0  0  0
   -1.7770   14.5080    1.8010 N   0  0  0  0  0  0  0  0  0  0  0  0
   -3.6800   15.0040   -1.6980 C   0  0  0  0  0  0  0  0  0  0  0  0
   -3.9460   15.0300    0.6220 C   0  0  0  0  0  0  0  0  0  0  0  0
   -4.7460   15.1930    1.7640 N   0  0  0  0  0  0  0  0  0  0  0  0
   -4.4770   15.1790   -0.6220 N   0  0  0  0  0  0  0  0  0  0  0  0
   -6.1370   14.7520    1.6490 C   0  0  0  0  0  0  0  0  0  0  0  0
   -6.4380   13.2880    1.5640 C   0  0  0  0  0  0  0  0  0  0  0  0
   -6.1110   12.6400    0.4100 O   0  0  0  0  0  0  0  0  0  0  0  0
   -7.0220   12.4100    2.4470 C   0  0  0  0  0  0  0  0  0  0  0  0
   -7.0590   11.1600    1.8070 C   0  0  0  0  0  0  0  0  0  0  0  0
   -6.4940   11.3520    0.5710 C   0  0  0  0  0  0  0  0  0  0  0  0
  1  2  1  0
  2  3  1  0
  3  4  2  0
  3  5  1  0
  6  4  1  6
  5  7  2  0
  6  8  1  0
  7  8  1  0
  6  9  1  0
  9 10  1  0
  8 11  2  0
  9 12  2  0
 11 12  1  0
 10 13  1  0
 13 14  2  3
 13 15  1  0
 14 16  1  0
 16 17  1  0
 17 18  1  0
 17 19  1  0
 18 20  2  0
 18 21  1  0
 19 22  2  0
 21 22  1  0
 20 23  1  0
 21 24  2  0
 24 25  1  0
 23 26  2  0
 24 26  1  0
 25 27  1  0
 27 28  1  0
 28 29  1  0
 28 30  2  0
 30 31  1  0
 29 32  1  0
 31 32  2  0
M  END
