mac-x0455-mac-x0572
     RDKit          3D

 27 29  0  0  0  0  0  0  0  0999 V2000
   -2.5120   14.2860   -2.9500 C   0  0  0  0  0  0  0  0  0  0  0  0
   -1.0780   14.1810   -3.5020 C   0  0  1  0  0  0  0  0  0  0  0  0
   -0.9470   15.4010   -4.2910 O   0  0  0  0  0  0  0  0  0  0  0  0
   -0.0010   14.2780   -2.3310 C   0  0  0  0  0  0  0  0  0  0  0  0
   -0.9270   12.9700   -4.4230 C   0  0  0  0  0  0  0  0  0  0  0  0
    1.0870   15.1200   -2.6710 O   0  0  0  0  0  0  0  0  0  0  0  0
    0.6170   13.0090   -2.1230 O   0  0  0  0  0  0  0  0  0  0  0  0
   -0.6050   14.7800   -1.0150 C   0  0  0  0  0  0  0  0  0  0  0  0
   -1.9170   11.9640   -4.3920 C   0  0  0  0  0  0  0  0  0  0  0  0
    0.1480   12.7960   -5.3100 C   0  0  0  0  0  0  0  0  0  0  0  0
   -1.7620   15.7870   -1.1690 C   0  0  0  0  0  0  0  0  0  0  0  0
   -1.8380   10.8390   -5.2080 C   0  0  0  0  0  0  0  0  0  0  0  0
    0.2280   11.6700   -6.1290 C   0  0  0  0  0  0  0  0  0  0  0  0
   -0.7650   10.6890   -6.0780 C   0  0  0  0  0  0  0  0  0  0  0  0
   -3.0380   15.3560   -0.4810 C   0  0  0  0  0  0  0  0  0  0  0  0
   -2.8130   15.4050    0.9370 C   0  0  0  0  0  0  0  0  0  0  0  0
   -4.2470   14.9550   -0.9700 C   0  0  0  0  0  0  0  0  0  0  0  0
   -5.3580   14.4940   -0.0380 C   0  0  2  0  0  0  0  0  0  0  0  0
   -3.7560   15.2190    1.8360 C   0  0  0  0  0  0  0  0  0  0  0  0
   -6.8130   14.7020   -0.4280 C   0  0  0  0  0  0  0  0  0  0  0  0
   -5.1270   14.9280    1.3890 C   0  0  0  0  0  0  0  0  0  0  0  0
   -7.2320   14.9330   -1.5590 O   0  0  0  0  0  0  0  0  0  0  0  0
   -7.8070   14.5740    0.6840 C   0  0  0  0  0  0  0  0  0  0  0  0
   -6.0700   15.0350    2.2590 N   0  0  0  0  0  0  0  0  0  0  0  0
   -9.1190   14.2850    0.3690 O   0  0  0  0  0  0  0  0  0  0  0  0
   -7.3620   14.7450    1.9360 C   0  0  0  0  0  0  0  0  0  0  0  0
   -8.2610   14.6370    3.1430 C   0  0  0  0  0  0  0  0  0  0  0  0
  2  1  1  1
  2  3  1  0
  2  4  1  0
  2  5  1  0
  4  6  1  0
  4  7  1  0
  4  8  1  0
  5  9  2  0
  5 10  1  0
  8 11  1  0
  9 12  1  0
 10 13  2  0
 12 14  2  0
 13 14  1  0
 11 15  1  0
 15 16  1  0
 15 17  2  0
 18 17  1  6
 16 19  2  0
 18 20  1  0
 18 21  1  0
 19 21  1  0
 20 22  2  0
 20 23  1  0
 21 24  2  0
 23 25  1  0
 23 26  2  0
 24 26  1  0
 26 27  1  0
M  END
