mac-x0385-mac-x0404
     RDKit          3D

 26 28  0  0  0  0  0  0  0  0999 V2000
   -5.2850   15.4780   -0.6450 C   0  0  0  0  0  0  0  0  0  0  0  0
   -3.8610   15.2620   -0.2680 C   0  0  0  0  0  0  0  0  0  0  0  0
   -2.9370   14.9220   -1.2210 C   0  0  0  0  0  0  0  0  0  0  0  0
   -3.3730   15.3860    1.0310 C   0  0  0  0  0  0  0  0  0  0  0  0
   -4.2300   15.7300    2.0740 N   0  0  0  0  0  0  0  0  0  0  0  0
   -2.0810   15.1950    1.3490 N   0  0  0  0  0  0  0  0  0  0  0  0
   -1.6490   14.7280   -0.9500 N   0  0  0  0  0  0  0  0  0  0  0  0
   -1.2770   14.8800    0.3250 C   0  0  0  0  0  0  0  0  0  0  0  0
    0.1630   14.6850    0.5640 C   0  0  0  0  0  0  0  0  0  0  0  0
    0.9080   14.7350   -0.7700 C   0  0  0  0  0  0  0  0  0  0  0  0
    1.0330   13.3620   -1.3800 C   0  0  0  0  0  0  0  0  0  0  0  0
    0.3190   13.1920   -2.5820 O   0  0  0  0  0  0  0  0  0  0  0  0
    0.7470   12.1410   -3.3110 C   0  0  0  0  0  0  0  0  0  0  0  0
    0.5660   10.9570   -3.0410 O   0  0  0  0  0  0  0  0  0  0  0  0
    1.4900   12.6810   -4.5140 C   0  0  0  0  0  0  0  0  0  0  0  0
    1.2670   14.0590   -4.7220 O   0  0  0  0  0  0  0  0  0  0  0  0
   -0.0330   14.4890   -4.8850 C   0  0  0  0  0  0  0  0  0  0  0  0
   -0.1880   15.8700   -5.1110 C   0  0  0  0  0  0  0  0  0  0  0  0
   -1.1650   13.6680   -4.8480 C   0  0  0  0  0  0  0  0  0  0  0  0
   -1.4750   16.4180   -5.3020 C   0  0  0  0  0  0  0  0  0  0  0  0
   -2.4370   14.2170   -5.0330 C   0  0  0  0  0  0  0  0  0  0  0  0
    0.9110   16.7230   -5.1570 C   0  0  0  0  0  0  0  0  0  0  0  0
   -2.5920   15.5810   -5.2590 C   0  0  0  0  0  0  0  0  0  0  0  0
   -1.6110   17.7900   -5.5390 C   0  0  0  0  0  0  0  0  0  0  0  0
    0.7710   18.0870   -5.3910 C   0  0  0  0  0  0  0  0  0  0  0  0
   -0.5000   18.6140   -5.5850 C   0  0  0  0  0  0  0  0  0  0  0  0
  1  2  1  0
  2  3  2  0
  2  4  1  0
  4  5  1  0
  4  6  2  0
  3  7  1  0
  6  8  1  0
  7  8  2  0
  8  9  1  0
  9 10  1  0
 10 11  1  0
 11 12  1  0
 12 13  1  0
 13 14  2  0
 13 15  1  0
 15 16  1  0
 16 17  1  0
 17 18  1  0
 17 19  2  0
 18 20  2  0
 19 21  1  0
 18 22  1  0
 20 23  1  0
 21 23  2  0
 20 24  1  0
 22 25  2  0
 24 26  2  0
 25 26  1  0
M  END
