mac-x0510-mac-x0319
     RDKit          3D

 23 25  0  0  0  0  0  0  0  0999 V2000
   -6.1270   14.8700    0.8840 O   0  0  0  0  0  0  0  0  0  0  0  0
   -4.9690   15.0810    0.5430 C   0  0  0  0  0  0  0  0  0  0  0  0
   -4.6820   15.5540   -0.7100 N   0  0  0  0  0  0  0  0  0  0  0  0
   -3.9110   14.8610    1.3670 N   0  0  0  0  0  0  0  0  0  0  0  0
   -2.6580   14.8410    0.8300 C   0  0  0  0  0  0  0  0  0  0  0  0
   -3.5620   15.2450   -1.4440 C   0  0  0  0  0  0  0  0  0  0  0  0
   -3.6580   15.2150   -2.7600 N   0  0  0  0  0  0  0  0  0  0  0  0
   -2.4560   15.0160   -0.5330 C   0  0  0  0  0  0  0  0  0  0  0  0
   -1.5070   14.6600    1.5250 N   0  0  0  0  0  0  0  0  0  0  0  0
   -2.8510   14.9530   -3.9920 C   0  0  0  0  0  0  0  0  0  0  0  0
   -1.0950   14.9290   -0.6680 N   0  0  0  0  0  0  0  0  0  0  0  0
   -0.5720   14.7190    0.5970 C   0  0  0  0  0  0  0  0  0  0  0  0
   -1.3480   15.0580   -4.0770 C   0  0  0  0  0  0  0  0  0  0  0  0
   -0.6960   16.2810   -4.2390 C   0  0  0  0  0  0  0  0  0  0  0  0
   -0.5640   13.9110   -4.0030 C   0  0  0  0  0  0  0  0  0  0  0  0
    0.8130   13.9410   -4.0610 C   0  0  0  0  0  0  0  0  0  0  0  0
    0.6900   16.3260   -4.3060 C   0  0  0  0  0  0  0  0  0  0  0  0
    1.5090   12.6230   -3.9340 C   0  0  0  0  0  0  0  0  0  0  0  0
    1.2400   17.5580   -4.4550 O   0  0  0  0  0  0  0  0  0  0  0  0
    1.4610   15.1660   -4.2170 C   0  0  0  0  0  0  0  0  0  0  0  0
    0.9830   11.9070   -2.7050 C   0  0  0  0  0  0  0  0  0  0  0  0
    0.6660   10.6220   -2.9370 O   0  0  0  0  0  0  0  0  0  0  0  0
    0.8280   12.3640   -1.5790 O   0  0  0  0  0  0  0  0  0  0  0  0
  1  2  2  0
  2  3  1  0
  2  4  1  0
  4  5  1  0
  3  6  1  0
  6  7  2  3
  5  8  2  0
  6  8  1  0
  5  9  1  0
  7 10  1  0
  8 11  1  0
  9 12  2  0
 11 12  1  0
 10 13  1  0
 13 14  2  0
 13 15  1  0
 15 16  2  0
 14 17  1  0
 16 18  1  0
 17 19  1  0
 16 20  1  0
 17 20  2  0
 18 21  1  0
 21 22  1  0
 21 23  2  0
M  END
