mac-x0357-diamond-x0689_0_A
     RDKit          3D

 19 20  0  0  0  0  0  0  0  0999 V2000
    2.4210   13.1450   -4.3690 C   0  0  0  0  0  0  0  0  0  0  0  0
    1.1030   12.5360   -4.7770 C   0  0  0  0  0  0  0  0  0  0  0  0
    0.9600   11.9630   -6.0440 C   0  0  0  0  0  0  0  0  0  0  0  0
   -0.0230   12.5000   -3.9350 C   0  0  0  0  0  0  0  0  0  0  0  0
    2.0290   11.9740   -6.8590 O   0  0  0  0  0  0  0  0  0  0  0  0
   -0.0860   13.0300   -2.5590 C   0  0  0  0  0  0  0  0  0  0  0  0
   -1.2210   11.9120   -4.3860 C   0  0  0  0  0  0  0  0  0  0  0  0
   -0.2240   11.3820   -6.4930 C   0  0  0  0  0  0  0  0  0  0  0  0
   -1.0420   13.7850   -2.1340 N   0  0  0  0  0  0  0  0  0  0  0  0
    0.9460   12.5830   -1.8140 O   0  0  0  0  0  0  0  0  0  0  0  0
   -1.3250   11.3580   -5.6530 C   0  0  0  0  0  0  0  0  0  0  0  0
   -1.1500   14.1730   -0.7990 C   0  0  0  0  0  0  0  0  0  0  0  0
   -2.3780   14.4920   -0.3310 N   0  0  0  0  0  0  0  0  0  0  0  0
   -0.0260   14.1880   -0.0190 C   0  0  0  0  0  0  0  0  0  0  0  0
   -2.4590   14.8220    0.9650 C   0  0  0  0  0  0  0  0  0  0  0  0
   -0.2320   14.5370    1.2820 C   0  0  0  0  0  0  0  0  0  0  0  0
   -3.6680   15.1740    1.5490 N   0  0  0  0  0  0  0  0  0  0  0  0
   -1.4240   14.8480    1.7840 N   0  0  0  0  0  0  0  0  0  0  0  0
   -4.7640   15.2720    0.6260 C   0  0  0  0  0  0  0  0  0  0  0  0
  1  2  1  0
  2  3  2  0
  2  4  1  0
  3  5  1  0
  4  6  1  0
  4  7  2  0
  3  8  1  0
  6  9  2  3
  6 10  1  0
  7 11  1  0
  8 11  2  0
  9 12  1  0
 12 13  2  0
 12 14  1  0
 13 15  1  0
 14 16  2  0
 15 17  1  0
 15 18  2  0
 16 18  1  0
 17 19  1  0
M  END
