mac-x0411-mac-x0148
     RDKit          3D

 31 35  0  0  0  0  0  0  0  0999 V2000
    0.7760    8.9110   -8.1490 Cl  0  0  0  0  0  0  0  0  0  0  0  0
   -0.4470    9.3390   -7.0080 C   0  0  0  0  0  0  0  0  0  0  0  0
   -0.3370   10.4890   -6.2060 C   0  0  0  0  0  0  0  0  0  0  0  0
   -1.5510    8.4990   -6.9110 C   0  0  0  0  0  0  0  0  0  0  0  0
    0.8070   11.2510   -6.3840 O   0  0  0  0  0  0  0  0  0  0  0  0
   -1.3740   10.8000   -5.2770 C   0  0  0  0  0  0  0  0  0  0  0  0
   -2.5650    8.7900   -6.0150 C   0  0  0  0  0  0  0  0  0  0  0  0
   -1.4460   11.9830   -4.3240 C   0  0  0  0  0  0  0  0  0  0  0  0
    0.9480   12.4180   -5.5780 C   0  0  0  0  0  0  0  0  0  0  0  0
   -2.4740    9.9230   -5.2120 C   0  0  0  0  0  0  0  0  0  0  0  0
    1.3080   12.0880   -4.1310 C   0  0  0  0  0  0  0  0  0  0  0  0
   -0.3570   13.0780   -4.3060 C   0  0  1  0  0  0  0  0  0  0  0  0
    2.3760   12.7550   -3.6430 O   0  0  0  0  0  0  0  0  0  0  0  0
    0.7230   11.2850   -3.4060 O   0  0  0  0  0  0  0  0  0  0  0  0
   -0.5700   14.1750   -5.3380 C   0  0  0  0  0  0  0  0  0  0  0  0
   -0.0600   13.6730   -2.9310 C   0  0  0  0  0  0  0  0  0  0  0  0
   -1.7330   15.0870   -4.9580 C   0  0  1  0  0  0  0  0  0  0  0  0
   -1.1510   14.5420   -2.4870 N   0  0  0  0  0  0  0  0  0  0  0  0
   -2.9790   14.7290   -5.7670 C   0  0  0  0  0  0  0  0  0  0  0  0
   -2.1940   14.9320   -3.4960 C   0  0  2  0  0  0  0  0  0  0  0  0
   -1.4410   14.5890   -1.1270 C   0  0  0  0  0  0  0  0  0  0  0  0
   -3.9980   14.3050   -4.8610 O   0  0  0  0  0  0  0  0  0  0  0  0
   -3.3520   13.9560   -3.6350 C   0  0  0  0  0  0  0  0  0  0  0  0
   -0.4360   14.2870   -0.2290 N   0  0  0  0  0  0  0  0  0  0  0  0
   -2.6220   14.9180   -0.5990 C   0  0  0  0  0  0  0  0  0  0  0  0
   -0.6480   14.2920    1.1240 C   0  0  0  0  0  0  0  0  0  0  0  0
   -2.7790   14.9260    0.8730 C   0  0  0  0  0  0  0  0  0  0  0  0
   -3.9040   15.3130   -1.0770 C   0  0  0  0  0  0  0  0  0  0  0  0
   -1.7580   14.5860    1.7170 N   0  0  0  0  0  0  0  0  0  0  0  0
   -3.9800   15.2840    1.2230 N   0  0  0  0  0  0  0  0  0  0  0  0
   -4.6350   15.5080    0.0190 C   0  0  0  0  0  0  0  0  0  0  0  0
  1  2  1  0
  2  3  2  0
  2  4  1  0
  3  5  1  0
  3  6  1  0
  4  7  2  0
  6  8  1  0
  5  9  1  0
  6 10  2  0
  7 10  1  0
  9 11  1  0
 12  8  1  1
 11 13  1  0
 11 14  2  0
 12 15  1  0
 12 16  1  0
 17 15  1  6
 16 18  1  0
 17 19  1  0
 17 20  1  0
 18 20  1  0
 18 21  1  0
 19 22  1  0
 20 23  1  6
 22 23  1  0
 21 24  1  0
 21 25  2  0
 24 26  1  0
 25 27  1  0
 25 28  1  0
 26 29  2  0
 27 29  1  0
 27 30  2  0
 28 31  2  0
 30 31  1  0
M  END
