mac-x0358-mac-x0326
     RDKit          3D

 22 24  0  0  0  0  0  0  0  0999 V2000
    2.2080   12.2150   -3.0460 O   0  0  0  0  0  0  0  0  0  0  0  0
    0.9840   12.0050   -3.5640 C   0  0  0  0  0  0  0  0  0  0  0  0
    0.5470   10.8790   -3.6820 O   0  0  0  0  0  0  0  0  0  0  0  0
    0.3050   13.2910   -3.8700 C   0  0  1  0  0  0  0  0  0  0  0  0
    0.8620   14.5760   -3.3350 C   0  0  0  0  0  0  0  0  0  0  0  0
   -0.9060   13.5290   -4.7410 C   0  0  0  0  0  0  0  0  0  0  0  0
   -1.6340   12.5030   -5.3320 C   0  0  0  0  0  0  0  0  0  0  0  0
   -1.3340   14.8560   -4.9320 C   0  0  0  0  0  0  0  0  0  0  0  0
   -0.3320   14.7550   -2.4870 C   0  0  0  0  0  0  0  0  0  0  0  0
   -1.2320   11.2060   -5.1550 O   0  0  0  0  0  0  0  0  0  0  0  0
   -2.7720   12.7910   -6.0900 C   0  0  0  0  0  0  0  0  0  0  0  0
   -2.4680   15.1490   -5.6770 C   0  0  0  0  0  0  0  0  0  0  0  0
   -1.5130   14.9370   -3.0280 N   0  0  0  0  0  0  0  0  0  0  0  0
   -0.2770   14.6760   -0.7830 S   0  0  0  0  0  0  0  0  0  0  0  0
   -3.1860   14.1140   -6.2560 C   0  0  0  0  0  0  0  0  0  0  0  0
   -2.4720   15.0130   -2.0690 C   0  0  0  0  0  0  0  0  0  0  0  0
   -1.9910   14.8900   -0.7630 C   0  0  0  0  0  0  0  0  0  0  0  0
   -3.8420   15.2020   -2.3030 C   0  0  0  0  0  0  0  0  0  0  0  0
   -2.8500   14.9520    0.3360 C   0  0  0  0  0  0  0  0  0  0  0  0
   -4.6950   15.2640   -1.2090 C   0  0  0  0  0  0  0  0  0  0  0  0
   -4.2110   15.1440    0.0900 C   0  0  0  0  0  0  0  0  0  0  0  0
   -6.3800   15.4930   -1.4550 Cl  0  0  0  0  0  0  0  0  0  0  0  0
  1  2  1  0
  2  3  2  0
  2  4  1  0
  4  5  1  6
  4  6  1  0
  6  7  2  0
  6  8  1  0
  5  9  1  0
  7 10  1  0
  7 11  1  0
  8 12  2  0
  9 13  2  0
  9 14  1  0
 11 15  2  0
 12 15  1  0
 13 16  1  0
 14 17  1  0
 16 17  2  0
 16 18  1  0
 17 19  1  0
 18 20  2  0
 19 21  2  0
 20 21  1  0
 20 22  1  0
M  END
