mac-x0148-mac-x0380
     RDKit          3D

 27 31  0  0  0  0  0  0  0  0999 V2000
   -2.3690   15.4620   -2.6480 O   0  0  0  0  0  0  0  0  0  0  0  0
   -3.6390   15.1370   -2.3190 C   0  0  0  0  0  0  0  0  0  0  0  0
   -4.5700   15.4990   -3.0070 O   0  0  0  0  0  0  0  0  0  0  0  0
   -3.6560   14.2630   -1.1050 C   0  0  1  0  0  0  0  0  0  0  0  0
   -2.3140   14.3950   -0.5110 C   0  0  0  0  0  0  0  0  0  0  0  0
   -4.5990   14.4100    0.1610 C   0  0  1  0  0  0  0  0  0  0  0  0
   -2.4120   14.6820    0.8330 C   0  0  0  0  0  0  0  0  0  0  0  0
   -1.0650   14.2680   -1.0960 C   0  0  0  0  0  0  0  0  0  0  0  0
   -3.7510   14.7260    1.3030 N   0  0  0  0  0  0  0  0  0  0  0  0
   -5.7880   15.1530    0.4150 N   0  0  0  0  0  0  0  0  0  0  0  0
   -5.1870   13.0160    0.0260 C   0  0  0  0  0  0  0  0  0  0  0  0
   -0.8850   13.8750   -2.4870 N   0  0  0  0  0  0  0  0  0  0  0  0
    0.0130   14.4760   -0.3300 N   0  0  0  0  0  0  0  0  0  0  0  0
   -1.3690   14.8810    1.6060 N   0  0  0  0  0  0  0  0  0  0  0  0
   -6.7280   14.7890    1.3700 C   0  0  0  0  0  0  0  0  0  0  0  0
   -6.8420   12.4870    0.3150 S   0  0  0  0  0  0  0  0  0  0  0  0
   -6.8560   15.2170    2.5070 O   0  0  0  0  0  0  0  0  0  0  0  0
   -1.1550   14.6830   -3.7660 C   0  0  2  0  0  0  0  0  0  0  0  0
    0.1950   12.8710   -2.5540 C   0  0  0  0  0  0  0  0  0  0  0  0
   -0.1950   14.7790    0.9720 C   0  0  0  0  0  0  0  0  0  0  0  0
   -7.6850   13.7580    1.0430 C   0  0  0  0  0  0  0  0  0  0  0  0
   -2.6280   15.0610   -4.0950 C   0  0  0  0  0  0  0  0  0  0  0  0
   -0.7880   13.8890   -5.0790 C   0  0  2  0  0  0  0  0  0  0  0  0
   -0.1550   11.8820   -3.6400 C   0  0  0  0  0  0  0  0  0  0  0  0
   -2.1400   13.6370   -5.7230 C   0  0  0  0  0  0  0  0  0  0  0  0
   -2.8340   14.8460   -5.4960 O   0  0  0  0  0  0  0  0  0  0  0  0
   -0.0220   12.5550   -4.9830 C   0  0  0  0  0  0  0  0  0  0  0  0
  1  2  1  0
  2  3  2  0
  4  2  1  6
  4  5  1  0
  4  6  1  0
  5  7  2  0
  5  8  1  0
  6  9  1  0
  7  9  1  0
  6 10  1  0
  6 11  1  1
  8 12  1  0
  8 13  2  0
  7 14  1  0
 10 15  1  0
 11 16  2  0
 15 17  2  0
 12 18  1  0
 12 19  1  0
 13 20  1  0
 14 20  2  0
 15 21  1  0
 16 21  2  0
 18 22  1  6
 18 23  1  0
 19 24  1  0
 23 25  1  1
 22 26  1  0
 25 26  1  0
 23 27  1  0
 24 27  1  0
M  END
