mac-x0179-mac-x0224
     RDKit          3D

 25 27  0  0  0  0  0  0  0  0999 V2000
    0.1270   12.7990   -2.5730 N   0  0  0  0  0  0  0  0  0  0  0  0
    1.1870   12.5140   -3.3480 C   0  0  0  0  0  0  0  0  0  0  0  0
    2.2270   12.0190   -3.0090 O   0  0  0  0  0  0  0  0  0  0  0  0
   -0.2760   13.9990   -2.7850 C   0  0  0  0  0  0  0  0  0  0  0  0
    0.9240   12.9110   -4.8000 C   0  0  0  0  0  0  0  0  0  0  0  0
   -1.5040   14.4780   -2.1830 C   0  0  0  0  0  0  0  0  0  0  0  0
    0.1850   11.9220   -5.5600 N   0  0  0  0  0  0  0  0  0  0  0  0
   -1.7130   14.5420   -0.8100 C   0  0  0  0  0  0  0  0  0  0  0  0
   -2.4930   14.8710   -3.0750 C   0  0  0  0  0  0  0  0  0  0  0  0
   -2.2480   14.7980   -4.4200 O   0  0  0  0  0  0  0  0  0  0  0  0
    0.7620   11.3750   -6.6350 C   0  0  0  0  0  0  0  0  0  0  0  0
   -0.9280   11.2170   -5.1800 C   0  0  0  0  0  0  0  0  0  0  0  0
   -2.9380   15.0060   -0.3340 C   0  0  0  0  0  0  0  0  0  0  0  0
   -3.7120   15.3300   -2.6120 C   0  0  0  0  0  0  0  0  0  0  0  0
    1.8080   11.6650   -7.1040 O   0  0  0  0  0  0  0  0  0  0  0  0
   -1.6350   11.3360   -4.2000 O   0  0  0  0  0  0  0  0  0  0  0  0
   -3.2550   15.1110    1.4050 S   0  0  0  0  0  0  0  0  0  0  0  0
   -0.1050   10.3210   -7.1240 C   0  0  0  0  0  0  0  0  0  0  0  0
   -1.1510   10.2130   -6.2300 C   0  0  0  0  0  0  0  0  0  0  0  0
   -3.9350   15.3990   -1.2400 C   0  0  0  0  0  0  0  0  0  0  0  0
   -5.0600   15.0010    1.3810 C   0  0  0  0  0  0  0  0  0  0  0  0
    0.0040    9.5220   -8.2420 C   0  0  0  0  0  0  0  0  0  0  0  0
   -2.1590    9.2880   -6.4080 C   0  0  0  0  0  0  0  0  0  0  0  0
   -1.0030    8.5780   -8.4450 C   0  0  0  0  0  0  0  0  0  0  0  0
   -2.0780    8.4600   -7.5350 C   0  0  0  0  0  0  0  0  0  0  0  0
  1  2  1  0
  2  3  2  0
  1  4  2  3
  2  5  1  0
  4  6  1  0
  5  7  1  0
  6  8  2  0
  6  9  1  0
  9 10  1  0
  7 11  1  0
  7 12  1  0
  8 13  1  0
  9 14  2  0
 11 15  2  0
 12 16  2  0
 13 17  1  0
 11 18  1  0
 12 19  1  0
 18 19  2  0
 13 20  2  0
 14 20  1  0
 17 21  1  0
 18 22  1  0
 19 23  1  0
 22 24  2  0
 23 25  2  0
 24 25  1  0
M  END
