mac-x0346-diamond-x0438_0_A
     RDKit          3D

 18 19  0  0  0  0  0  0  0  0999 V2000
   -7.7620   15.5040   -0.6700 N   0  0  0  0  0  0  0  0  0  0  0  0
   -6.4700   15.3670   -1.1070 C   0  0  0  0  0  0  0  0  0  0  0  0
   -6.1400   15.9180   -2.1250 O   0  0  0  0  0  0  0  0  0  0  0  0
   -5.5660   14.4020   -0.3070 C   0  0  1  0  0  0  0  0  0  0  0  0
   -4.3310   14.0630   -1.1830 C   0  0  1  0  0  0  0  0  0  0  0  0
   -5.1380   14.6930    1.1160 C   0  0  1  0  0  0  0  0  0  0  0  0
   -6.6300   13.3820    0.0640 N   0  0  0  0  0  0  0  0  0  0  0  0
   -4.4300   14.7450   -2.4510 O   0  0  0  0  0  0  0  0  0  0  0  0
   -2.9950   14.5000   -0.5990 C   0  0  0  0  0  0  0  0  0  0  0  0
   -4.0190   15.6900    1.3190 C   0  0  0  0  0  0  0  0  0  0  0  0
   -7.4020   14.2900    0.9550 C   0  0  2  0  0  0  0  0  0  0  0  0
   -6.3940   14.8330    1.8450 N   0  0  0  0  0  0  0  0  0  0  0  0
   -2.8430   15.2300    0.5330 C   0  0  0  0  0  0  0  0  0  0  0  0
   -8.5490   13.7170    1.7640 C   0  0  0  0  0  0  0  0  0  0  0  0
   -9.3690   15.0590    2.6350 S   0  0  0  0  0  0  0  0  0  0  0  0
   -8.2690   15.4680    3.9790 C   0  0  0  0  0  0  0  0  0  0  0  0
  -10.5800   14.5230    3.2230 O   0  0  0  0  0  0  0  0  0  0  0  0
   -9.4540   16.2270    1.7740 O   0  0  0  0  0  0  0  0  0  0  0  0
  1  2  1  0
  2  3  2  0
  4  2  1  6
  4  5  1  0
  4  6  1  0
  4  7  1  0
  5  8  1  6
  5  9  1  0
  6 10  1  6
  7 11  1  0
  6 12  1  0
 11 12  1  0
  9 13  2  0
 10 13  1  0
 11 14  1  1
 15 14  1  0
 15 16  1  0
 15 17  2  0
 15 18  2  0
M  END
