mac-x0453-mac-x0346
     RDKit          3D

 12 13  0  0  0  0  0  0  0  0999 V2000
   -7.0010   13.7090    0.8120 N   0  0  0  0  0  0  0  0  0  0  0  0
   -5.9900   13.8760    1.8390 C   0  0  0  0  0  0  0  0  0  0  0  0
   -4.8080   14.8190    1.5730 C   0  0  0  0  0  0  0  0  0  0  0  0
   -7.1810   14.8640    0.0140 N   0  0  0  0  0  0  0  0  0  0  0  0
   -6.3970   15.0240   -1.1250 C   0  0  0  0  0  0  0  0  0  0  0  0
   -6.8420   15.2250   -2.2420 O   0  0  0  0  0  0  0  0  0  0  0  0
   -4.2410   14.8270    0.2100 C   0  0  0  0  0  0  0  0  0  0  0  0
   -4.9990   14.9240   -0.9490 N   0  0  0  0  0  0  0  0  0  0  0  0
   -2.9300   14.7490   -0.1980 C   0  0  0  0  0  0  0  0  0  0  0  0
   -4.0710   14.9030   -1.9790 C   0  0  0  0  0  0  0  0  0  0  0  0
   -4.3790   14.9820   -3.2590 O   0  0  0  0  0  0  0  0  0  0  0  0
   -2.8320   14.7960   -1.5520 N   0  0  0  0  0  0  0  0  0  0  0  0
  1  2  1  0
  2  3  1  0
  1  4  1  0
  4  5  1  0
  5  6  2  0
  3  7  1  0
  5  8  1  0
  7  8  1  0
  7  9  2  0
  8 10  1  0
 10 11  1  0
  9 12  1  0
 10 12  2  0
M  END
