mac-x1493-mac-x0381
     RDKit          3D

 27 30  0  0  0  0  0  0  0  0999 V2000
   -1.2300   14.7340   -1.4560 O   0  0  0  0  0  0  0  0  0  0  0  0
   -2.2600   14.8880   -2.3030 C   0  0  0  0  0  0  0  0  0  0  0  0
   -2.0770   15.0800   -3.4940 O   0  0  0  0  0  0  0  0  0  0  0  0
   -3.5780   14.7970   -1.6510 C   0  0  0  0  0  0  0  0  0  0  0  0
   -3.7330   15.0470   -0.2800 C   0  0  0  0  0  0  0  0  0  0  0  0
   -4.7010   14.4560   -2.3750 C   0  0  0  0  0  0  0  0  0  0  0  0
   -5.0100   14.9300    0.2980 C   0  0  0  0  0  0  0  0  0  0  0  0
   -5.9380   14.3370   -1.8470 N   0  0  0  0  0  0  0  0  0  0  0  0
   -6.0840   14.5640   -0.5380 C   0  0  0  0  0  0  0  0  0  0  0  0
   -5.2500   15.1620    1.6650 C   0  0  0  0  0  0  0  0  0  0  0  0
   -7.3430   14.4290    0.0070 C   0  0  0  0  0  0  0  0  0  0  0  0
   -6.5560   15.0250    2.2030 C   0  0  0  0  0  0  0  0  0  0  0  0
   -6.8910   15.2880    3.6560 C   0  0  0  0  0  0  0  0  0  0  0  0
   -7.5860   14.6490    1.3520 C   0  0  0  0  0  0  0  0  0  0  0  0
   -7.4750   14.1620    4.2760 N   0  0  0  0  0  0  0  0  0  0  0  0
   -8.7160   13.9760    4.2230 C   0  0  0  0  0  0  0  0  0  0  0  0
   -9.1130   12.8300    4.8300 N   0  0  0  0  0  0  0  0  0  0  0  0
   -9.7930   14.7960    3.6000 C   0  0  0  0  0  0  0  0  0  0  0  0
   -9.6400   15.6130    2.4590 C   0  0  0  0  0  0  0  0  0  0  0  0
  -11.0200   14.6960    4.2340 C   0  0  0  0  0  0  0  0  0  0  0  0
  -10.7550   16.3190    1.9530 C   0  0  0  0  0  0  0  0  0  0  0  0
  -12.1140   15.3890    3.7470 C   0  0  0  0  0  0  0  0  0  0  0  0
  -12.0050   16.1960    2.6110 C   0  0  0  0  0  0  0  0  0  0  0  0
  -10.6750   17.1420    0.8110 C   0  0  0  0  0  0  0  0  0  0  0  0
  -13.1280   16.8780    2.1220 C   0  0  0  0  0  0  0  0  0  0  0  0
  -11.8070   17.8160    0.3410 C   0  0  0  0  0  0  0  0  0  0  0  0
  -13.0310   17.6850    0.9920 C   0  0  0  0  0  0  0  0  0  0  0  0
  1  2  1  0
  2  3  2  0
  2  4  1  0
  4  5  2  0
  4  6  1  0
  5  7  1  0
  6  8  2  0
  7  9  2  0
  8  9  1  0
  7 10  1  0
  9 11  1  0
 10 12  2  0
 12 13  1  0
 11 14  2  0
 12 14  1  0
 13 15  1  0
 15 16  2  3
 16 17  1  0
 16 18  1  0
 18 19  2  0
 18 20  1  0
 19 21  1  0
 20 22  2  0
 21 23  2  0
 22 23  1  0
 21 24  1  0
 23 25  1  0
 24 26  2  0
 25 27  2  0
 26 27  1  0
M  END
