mac-x0572-mac-x0397
     RDKit          3D

 13 14  0  0  0  0  0  0  0  0999 V2000
   -7.9240   14.5300    3.1860 C   0  0  0  0  0  0  0  0  0  0  0  0
   -7.1930   14.6380    1.8660 C   0  0  0  0  0  0  0  0  0  0  0  0
   -5.8390   14.7370    2.0360 N   0  0  0  0  0  0  0  0  0  0  0  0
   -7.8090   14.6350    0.6670 C   0  0  0  0  0  0  0  0  0  0  0  0
   -9.1740   14.5320    0.4770 O   0  0  0  0  0  0  0  0  0  0  0  0
   -6.9370   14.7620   -0.5580 C   0  0  0  0  0  0  0  0  0  0  0  0
   -5.0630   15.0700    1.0520 C   0  0  0  0  0  0  0  0  0  0  0  0
   -7.3370   14.3750   -1.6520 O   0  0  0  0  0  0  0  0  0  0  0  0
   -5.5670   15.3920   -0.3440 C   0  0  1  0  0  0  0  0  0  0  0  0
   -3.6150   15.1290    1.3240 C   0  0  0  0  0  0  0  0  0  0  0  0
   -2.7740   15.0870    0.2950 C   0  0  0  0  0  0  0  0  0  0  0  0
   -4.5260   15.1210   -1.3880 C   0  0  0  0  0  0  0  0  0  0  0  0
   -3.2310   14.9880   -1.0730 C   0  0  0  0  0  0  0  0  0  0  0  0
  1  2  1  0
  2  3  1  0
  2  4  2  0
  4  5  1  0
  4  6  1  0
  3  7  2  0
  6  8  2  0
  6  9  1  0
  7  9  1  0
  7 10  1  0
 10 11  2  0
  9 12  1  6
 11 13  1  0
 12 13  2  0
M  END
