mac-x0271-mac-x0321
     RDKit          3D

 15 16  0  0  0  0  0  0  0  0999 V2000
   -3.1050   14.9610   -2.9760 C   0  0  0  0  0  0  0  0  0  0  0  0
   -1.8280   14.9330   -2.5190 O   0  0  0  0  0  0  0  0  0  0  0  0
   -3.3190   14.9660   -4.1670 O   0  0  0  0  0  0  0  0  0  0  0  0
   -4.0700   14.9510   -1.8410 C   0  0  0  0  0  0  0  0  0  0  0  0
   -5.4880   14.9610   -1.9670 C   0  0  0  0  0  0  0  0  0  0  0  0
   -3.5180   14.9210   -0.5820 C   0  0  0  0  0  0  0  0  0  0  0  0
   -6.2770   14.9230   -0.7840 C   0  0  0  0  0  0  0  0  0  0  0  0
   -4.3100   14.8850    0.5350 C   0  0  0  0  0  0  0  0  0  0  0  0
   -3.4800   14.8400    2.0110 Cl  0  0  0  0  0  0  0  0  0  0  0  0
   -5.6880   14.8770    0.4740 C   0  0  0  0  0  0  0  0  0  0  0  0
   -7.6980   14.9270   -0.8910 O   0  0  0  0  0  0  0  0  0  0  0  0
   -6.5480   14.8170    1.6620 C   0  0  0  0  0  0  0  0  0  0  0  0
   -8.5300   14.9070    0.2400 C   0  0  0  0  0  0  0  0  0  0  0  0
   -9.7550   14.9650    0.1850 O   0  0  0  0  0  0  0  0  0  0  0  0
   -7.8710   14.8250    1.5470 C   0  0  0  0  0  0  0  0  0  0  0  0
  1  2  1  0
  1  3  2  0
  1  4  1  0
  4  5  2  0
  4  6  1  0
  5  7  1  0
  6  8  2  0
  8  9  1  0
  7 10  2  0
  8 10  1  0
  7 11  1  0
 10 12  1  0
 11 13  1  0
 13 14  2  0
 12 15  2  0
 13 15  1  0
M  END
