mac-x0306-mac-x0437
     RDKit          3D

 28 31  0  0  0  0  0  0  0  0999 V2000
    1.4030   13.0370   -2.0740 O   0  0  0  0  0  0  0  0  0  0  0  0
    1.1600   12.2510   -3.1490 C   0  0  0  0  0  0  0  0  0  0  0  0
    0.7040   11.1180   -3.0780 O   0  0  0  0  0  0  0  0  0  0  0  0
    0.2680   13.3790   -1.2640 C   0  0  0  0  0  0  0  0  0  0  0  0
    1.5210   12.9410   -4.4500 C   0  0  0  0  0  0  0  0  0  0  0  0
   -0.4140   14.6640   -1.7280 C   0  0  0  0  0  0  0  0  0  0  0  0
    0.3530   13.1810   -5.4040 C   0  0  0  0  0  0  0  0  0  0  0  0
   -1.7760   14.4410   -2.4090 C   0  0  0  0  0  0  0  0  0  0  0  0
   -2.9230   14.9990   -1.6620 N   0  0  0  0  0  0  0  0  0  0  0  0
   -0.4700   12.0080   -5.6250 N   0  0  0  0  0  0  0  0  0  0  0  0
   -4.1160   15.3550   -2.2960 C   0  0  0  0  0  0  0  0  0  0  0  0
   -2.9560   14.9940   -0.2710 C   0  0  0  0  0  0  0  0  0  0  0  0
   -1.6120   11.7010   -4.9360 C   0  0  0  0  0  0  0  0  0  0  0  0
   -0.2550   11.0160   -6.5460 C   0  0  0  0  0  0  0  0  0  0  0  0
   -5.3080   15.1360   -1.7210 C   0  0  0  0  0  0  0  0  0  0  0  0
   -4.0770   14.7560    0.4110 C   0  0  0  0  0  0  0  0  0  0  0  0
   -2.1450   10.5740   -5.3540 N   0  0  0  0  0  0  0  0  0  0  0  0
   -1.3140   10.1340   -6.3520 C   0  0  0  0  0  0  0  0  0  0  0  0
    0.7340   10.8070   -7.5070 C   0  0  0  0  0  0  0  0  0  0  0  0
   -5.3530   14.4650   -0.3570 C   0  0  0  0  0  0  0  0  0  0  0  0
   -1.4010    8.9780   -7.1440 C   0  0  0  0  0  0  0  0  0  0  0  0
    0.6340    9.6530   -8.2910 C   0  0  0  0  0  0  0  0  0  0  0  0
   -6.6340   14.5940    0.4330 C   0  0  0  0  0  0  0  0  0  0  0  0
   -0.4160    8.7500   -8.1120 C   0  0  0  0  0  0  0  0  0  0  0  0
   -6.6720   14.5270    1.8130 N   0  0  0  0  0  0  0  0  0  0  0  0
   -7.8560   14.7710   -0.0390 N   0  0  0  0  0  0  0  0  0  0  0  0
   -8.6840   14.8180    1.0470 C   0  0  0  0  0  0  0  0  0  0  0  0
   -7.9680   14.6700    2.2070 C   0  0  0  0  0  0  0  0  0  0  0  0
  1  2  1  0
  2  3  2  0
  1  4  1  0
  2  5  1  0
  4  6  1  0
  5  7  1  0
  6  8  1  0
  8  9  1  0
  7 10  1  0
  9 11  1  0
  9 12  1  0
 10 13  1  0
 10 14  1  0
 11 15  2  0
 12 16  2  0
 13 17  2  0
 14 18  2  0
 17 18  1  0
 14 19  1  0
 15 20  1  0
 16 20  1  0
 18 21  1  0
 19 22  2  0
 20 23  1  0
 21 24  2  0
 22 24  1  0
 23 25  1  0
 23 26  2  0
 26 27  1  0
 25 28  1  0
 27 28  2  0
M  END
