mac-x0379-diamond-x0465_0_A
     RDKit          3D

 23 24  0  0  0  0  0  0  0  0999 V2000
   -5.1880   14.9430    0.2840 C   0  0  0  0  0  0  0  0  0  0  0  0
   -4.3060   14.9540   -0.9110 C   0  0  0  0  0  0  0  0  0  0  0  0
   -4.7290   15.0830   -2.1450 N   0  0  0  0  0  0  0  0  0  0  0  0
   -2.6070   14.7900   -0.7300 S   0  0  0  0  0  0  0  0  0  0  0  0
   -3.6580   15.0630   -3.0100 C   0  0  0  0  0  0  0  0  0  0  0  0
   -2.4140   14.9160   -2.4370 C   0  0  0  0  0  0  0  0  0  0  0  0
   -1.1160   14.8710   -3.0700 C   0  0  0  0  0  0  0  0  0  0  0  0
   -0.9180   14.7500   -4.2720 O   0  0  0  0  0  0  0  0  0  0  0  0
   -0.1230   15.0080   -2.1440 O   0  0  0  0  0  0  0  0  0  0  0  0
    1.0560   14.2230   -2.3790 C   0  0  0  0  0  0  0  0  0  0  0  0
    0.8680   12.7810   -2.2060 N   0  0  0  0  0  0  0  0  0  0  0  0
    0.7090   12.0490   -3.2590 C   0  0  0  0  0  0  0  0  0  0  0  0
    0.6990   12.4720   -4.7410 C   0  0  1  0  0  0  0  0  0  0  0  0
    0.5240   10.7430   -2.9920 O   0  0  0  0  0  0  0  0  0  0  0  0
    1.9630   13.2620   -5.0590 C   0  0  0  0  0  0  0  0  0  0  0  0
    0.6570   11.3140   -5.6010 O   0  0  0  0  0  0  0  0  0  0  0  0
   -0.5760   10.7780   -5.8630 C   0  0  0  0  0  0  0  0  0  0  0  0
   -0.6810    9.6010   -6.6150 C   0  0  0  0  0  0  0  0  0  0  0  0
   -1.7270   11.3830   -5.3970 C   0  0  0  0  0  0  0  0  0  0  0  0
    0.4000    8.9890   -7.1050 F   0  0  0  0  0  0  0  0  0  0  0  0
   -1.9170    9.0300   -6.8760 C   0  0  0  0  0  0  0  0  0  0  0  0
   -2.9730   10.8140   -5.6600 C   0  0  0  0  0  0  0  0  0  0  0  0
   -3.0720    9.6370   -6.3950 C   0  0  0  0  0  0  0  0  0  0  0  0
  1  2  1  0
  2  3  2  0
  2  4  1  0
  3  5  1  0
  4  6  1  0
  5  6  2  0
  6  7  1  0
  7  8  2  0
  7  9  1  0
  9 10  1  0
 10 11  1  0
 11 12  2  3
 12 13  1  0
 12 14  1  0
 13 15  1  6
 13 16  1  0
 16 17  1  0
 17 18  2  0
 17 19  1  0
 18 20  1  0
 18 21  1  0
 19 22  2  0
 21 23  2  0
 22 23  1  0
M  END
