mac-x0271-mac-x0326
     RDKit          3D

 26 29  0  0  0  0  0  0  0  0999 V2000
   -2.7990   15.4090    0.4120 O   0  0  0  0  0  0  0  0  0  0  0  0
   -4.1060   15.1900    0.7120 C   0  0  0  0  0  0  0  0  0  0  0  0
   -4.5070   15.3620    1.9660 C   0  0  0  0  0  0  0  0  0  0  0  0
   -4.9050   14.8020   -0.3260 C   0  0  0  0  0  0  0  0  0  0  0  0
   -6.2800   14.5950   -0.0640 C   0  0  0  0  0  0  0  0  0  0  0  0
   -5.8050   15.1370    2.2610 C   0  0  0  0  0  0  0  0  0  0  0  0
   -3.8650   14.7620   -1.2950 C   0  0  0  0  0  0  0  0  0  0  0  0
   -6.6950   14.7630    1.2740 C   0  0  0  0  0  0  0  0  0  0  0  0
   -7.2750   14.2230   -0.9990 O   0  0  0  0  0  0  0  0  0  0  0  0
   -3.5960   14.8490   -2.6680 C   0  0  0  0  0  0  0  0  0  0  0  0
   -2.8310   14.5580   -0.3880 C   0  0  0  0  0  0  0  0  0  0  0  0
   -8.0510   14.5610    1.6780 C   0  0  0  0  0  0  0  0  0  0  0  0
   -8.6100   14.4910   -0.6710 C   0  0  0  0  0  0  0  0  0  0  0  0
   -2.2020   14.7050   -3.0290 C   0  0  0  0  0  0  0  0  0  0  0  0
   -1.5370   14.4350   -0.6990 C   0  0  0  0  0  0  0  0  0  0  0  0
   -9.4750   14.7710   -1.4820 O   0  0  0  0  0  0  0  0  0  0  0  0
   -8.9650   14.4320    0.7490 C   0  0  0  0  0  0  0  0  0  0  0  0
   -1.6220   14.7250   -4.2880 N   0  0  0  0  0  0  0  0  0  0  0  0
   -1.2390   14.5090   -2.0080 C   0  0  0  0  0  0  0  0  0  0  0  0
   -0.3050   14.5390   -4.1700 C   0  0  0  0  0  0  0  0  0  0  0  0
    0.3330   14.3710   -2.6070 S   0  0  0  0  0  0  0  0  0  0  0  0
    0.6770   14.4480   -5.2800 C   0  0  0  0  0  0  0  0  0  0  0  0
    1.6370   13.2740   -5.0630 C   0  0  0  0  0  0  0  0  0  0  0  0
    1.2240   12.3780   -3.9190 C   0  0  0  0  0  0  0  0  0  0  0  0
    0.2430   11.5130   -4.2360 O   0  0  0  0  0  0  0  0  0  0  0  0
    1.7030   12.3830   -2.7960 O   0  0  0  0  0  0  0  0  0  0  0  0
  1  2  1  0
  2  3  2  0
  2  4  1  0
  4  5  2  0
  3  6  1  0
  4  7  1  0
  5  8  1  0
  6  8  2  0
  5  9  1  0
  7 10  2  0
  7 11  1  0
  8 12  1  0
  9 13  1  0
 10 14  1  0
 11 15  2  0
 13 16  2  0
 12 17  2  0
 13 17  1  0
 14 18  1  0
 14 19  2  0
 15 19  1  0
 18 20  2  0
 19 21  1  0
 20 21  1  0
 20 22  1  0
 22 23  1  0
 23 24  1  0
 24 25  1  0
 24 26  2  0
M  END
