mac-x0204-diamond-x0591_0_A
     RDKit          3D

 23 24  0  0  0  0  0  0  0  0999 V2000
    0.5050   11.4660   -2.2070 O   0  0  0  0  0  0  0  0  0  0  0  0
    0.6030   12.4070   -3.1530 C   0  0  0  0  0  0  0  0  0  0  0  0
    1.4820   13.2470   -3.1440 O   0  0  0  0  0  0  0  0  0  0  0  0
   -0.4580   12.3100   -4.1640 C   0  0  0  0  0  0  0  0  0  0  0  0
   -1.0620   13.4790   -4.5460 C   0  0  0  0  0  0  0  0  0  0  0  0
   -0.8900   11.1270   -4.7530 C   0  0  0  0  0  0  0  0  0  0  0  0
   -2.0730   13.4590   -5.4880 C   0  0  0  0  0  0  0  0  0  0  0  0
   -1.8810   11.0680   -5.6910 N   0  0  0  0  0  0  0  0  0  0  0  0
   -2.6370   14.7400   -5.7930 N   0  0  0  0  0  0  0  0  0  0  0  0
   -2.4550   12.2510   -6.0380 C   0  0  0  0  0  0  0  0  0  0  0  0
   -2.3490   15.6160   -4.6090 S   0  0  2  0  0  0  0  0  0  0  0  0
   -2.4800   17.1260   -5.2990 N   0  0  0  0  0  0  0  0  0  0  0  0
   -1.0720   15.7420   -3.9650 O   0  0  0  0  0  0  0  0  0  0  0  0
   -3.5450   15.2270   -3.3600 C   0  0  0  0  0  0  0  0  0  0  0  0
   -3.1520   15.2060   -2.0240 C   0  0  0  0  0  0  0  0  0  0  0  0
   -4.8600   14.9450   -3.7060 C   0  0  0  0  0  0  0  0  0  0  0  0
   -4.0790   14.9220   -1.0210 C   0  0  0  0  0  0  0  0  0  0  0  0
   -5.7930   14.6630   -2.7070 C   0  0  0  0  0  0  0  0  0  0  0  0
   -5.4090   14.6550   -1.3600 C   0  0  0  0  0  0  0  0  0  0  0  0
   -6.4360   14.3590   -0.3230 C   0  0  0  0  0  0  0  0  0  0  0  0
   -6.0090   14.3920    0.9880 N   0  0  0  0  0  0  0  0  0  0  0  0
   -7.5890   14.1110   -0.6510 O   0  0  0  0  0  0  0  0  0  0  0  0
   -6.9670   14.4750    2.0670 C   0  0  0  0  0  0  0  0  0  0  0  0
  1  2  1  0
  2  3  2  0
  2  4  1  0
  4  5  2  0
  4  6  1  0
  5  7  1  0
  6  8  2  0
  7  9  1  0
  7 10  2  0
  8 10  1  0
  9 11  2  0
 11 12  1  6
 11 13  2  0
 11 14  1  0
 14 15  2  0
 14 16  1  0
 15 17  1  0
 16 18  2  0
 17 19  2  0
 18 19  1  0
 19 20  1  0
 20 21  1  0
 20 22  2  0
 21 23  1  0
M  END
