mac-x0306-diamond-x0864_0_A
     RDKit          3D

 26 28  0  0  0  0  0  0  0  0999 V2000
    1.6320   11.8030   -6.8900 O   0  0  0  0  0  0  0  0  0  0  0  0
    0.5750   11.3310   -6.5090 C   0  0  0  0  0  0  0  0  0  0  0  0
   -0.1950   11.8760   -5.5010 N   0  0  0  0  0  0  0  0  0  0  0  0
    0.0450   10.0830   -7.1150 C   0  0  0  0  0  0  0  0  0  0  0  0
    0.4300   12.8290   -4.5720 C   0  0  0  0  0  0  0  0  0  0  0  0
   -1.5350   11.5790   -5.3950 C   0  0  0  0  0  0  0  0  0  0  0  0
   -1.2180    9.7130   -6.8660 C   0  0  0  0  0  0  0  0  0  0  0  0
    0.6390   12.3160   -3.1470 C   0  0  0  0  0  0  0  0  0  0  0  0
   -1.9610    8.1550   -7.5750 Br  0  0  0  0  0  0  0  0  0  0  0  0
   -2.0590   10.5330   -6.0360 C   0  0  0  0  0  0  0  0  0  0  0  0
    0.6370   10.9850   -2.9580 O   0  0  0  0  0  0  0  0  0  0  0  0
    0.8030   13.1330   -2.1620 N   0  0  0  0  0  0  0  0  0  0  0  0
    0.7800   14.5820   -2.4170 C   0  0  0  0  0  0  0  0  0  0  0  0
   -0.3940   15.2620   -1.6970 C   0  0  0  0  0  0  0  0  0  0  0  0
   -1.6180   15.4870   -2.6030 C   0  0  0  0  0  0  0  0  0  0  0  0
   -2.8900   15.3450   -1.8470 N   0  0  0  0  0  0  0  0  0  0  0  0
   -4.0910   15.0660   -2.5070 C   0  0  0  0  0  0  0  0  0  0  0  0
   -2.8770   15.1090   -0.4700 C   0  0  0  0  0  0  0  0  0  0  0  0
   -5.2740   15.0720   -1.8740 C   0  0  0  0  0  0  0  0  0  0  0  0
   -3.9920   15.1150    0.2690 C   0  0  0  0  0  0  0  0  0  0  0  0
   -5.3240   15.4010   -0.3930 C   0  0  0  0  0  0  0  0  0  0  0  0
   -6.5440   14.8840    0.3470 C   0  0  0  0  0  0  0  0  0  0  0  0
   -6.5260   14.4910    1.6770 N   0  0  0  0  0  0  0  0  0  0  0  0
   -7.7660   14.7500   -0.1430 N   0  0  0  0  0  0  0  0  0  0  0  0
   -8.5370   14.2770    0.8830 C   0  0  0  0  0  0  0  0  0  0  0  0
   -7.7900   14.1100    2.0210 C   0  0  0  0  0  0  0  0  0  0  0  0
  1  2  2  0
  2  3  1  0
  2  4  1  0
  3  5  1  0
  3  6  1  0
  4  7  2  0
  5  8  1  0
  7  9  1  0
  6 10  2  0
  7 10  1  0
  8 11  1  0
  8 12  2  3
 12 13  1  0
 13 14  1  0
 14 15  1  0
 15 16  1  0
 16 17  1  0
 16 18  1  0
 17 19  2  0
 18 20  2  0
 19 21  1  0
 20 21  1  0
 21 22  1  0
 22 23  1  0
 22 24  2  0
 24 25  1  0
 23 26  1  0
 25 26  2  0
M  END
