mac-x0564-mac-x0341
     RDKit          3D

 15 17  0  0  0  0  0  0  0  0999 V2000
    0.8870   14.3090   -1.2810 O   0  0  0  0  0  0  0  0  0  0  0  0
    0.0390   14.3560   -2.1600 C   0  0  0  0  0  0  0  0  0  0  0  0
    0.3410   14.2240   -3.5120 N   0  0  0  0  0  0  0  0  0  0  0  0
   -1.3700   14.5380   -1.9250 C   0  0  0  0  0  0  0  0  0  0  0  0
   -2.3080   14.7540   -2.9030 C   0  0  0  0  0  0  0  0  0  0  0  0
   -0.5910   14.4460   -4.3890 C   0  0  0  0  0  0  0  0  0  0  0  0
   -1.9470   14.5110   -0.6990 O   0  0  0  0  0  0  0  0  0  0  0  0
   -1.9110   14.8120   -4.1900 N   0  0  0  0  0  0  0  0  0  0  0  0
   -3.2830   14.7010   -0.9070 C   0  0  0  0  0  0  0  0  0  0  0  0
   -3.5670   14.8650   -2.2640 C   0  0  0  0  0  0  0  0  0  0  0  0
   -4.9070   15.0760   -2.6280 C   0  0  0  0  0  0  0  0  0  0  0  0
   -4.2320   14.7190    0.1060 C   0  0  0  0  0  0  0  0  0  0  0  0
   -5.8930   15.0970   -1.6130 C   0  0  0  0  0  0  0  0  0  0  0  0
   -5.5630   14.9100   -0.2530 C   0  0  0  0  0  0  0  0  0  0  0  0
   -6.5330   14.8930    0.7830 N   0  0  0  0  0  0  0  0  0  0  0  0
  1  2  2  0
  2  3  1  0
  2  4  1  0
  4  5  2  0
  3  6  2  0
  4  7  1  0
  5  8  1  0
  6  8  1  0
  7  9  1  0
  5 10  1  0
  9 10  2  0
 10 11  1  0
  9 12  1  0
 11 13  2  0
 12 14  2  0
 13 14  1  0
 14 15  1  0
M  END
