mac-x0301-mac-x0361
     RDKit          3D

 21 23  0  0  0  0  0  0  0  0999 V2000
   -1.0260   13.2900   -3.2860 O   0  0  0  0  0  0  0  0  0  0  0  0
   -1.7820   14.4710   -3.0790 C   0  0  0  0  0  0  0  0  0  0  0  0
   -1.3920   15.5080   -3.9670 O   0  0  0  0  0  0  0  0  0  0  0  0
   -1.9910   14.7960   -1.6360 C   0  0  0  0  0  0  0  0  0  0  0  0
   -3.2530   14.5140   -2.6440 C   0  0  0  0  0  0  0  0  0  0  0  0
   -1.3070   14.6050   -0.4490 C   0  0  0  0  0  0  0  0  0  0  0  0
   -3.2570   15.4220   -1.5260 C   0  0  0  0  0  0  0  0  0  0  0  0
   -3.3320   14.0770   -1.3070 C   0  0  0  0  0  0  0  0  0  0  0  0
   -4.4550   14.9310   -3.2600 C   0  0  0  0  0  0  0  0  0  0  0  0
   -1.9020   15.0120    0.7550 C   0  0  0  0  0  0  0  0  0  0  0  0
   -3.8260   15.8210   -0.3230 C   0  0  0  0  0  0  0  0  0  0  0  0
   -0.0970   14.0400   -0.2360 O   0  0  0  0  0  0  0  0  0  0  0  0
   -4.4940   14.0660   -0.5650 C   0  0  0  0  0  0  0  0  0  0  0  0
   -5.6710   14.9230   -2.4880 C   0  0  0  0  0  0  0  0  0  0  0  0
   -3.1420   15.6100    0.8410 C   0  0  0  0  0  0  0  0  0  0  0  0
   -1.1450   14.7550    1.8260 O   0  0  0  0  0  0  0  0  0  0  0  0
    0.0460   14.3690    1.1620 C   0  0  0  0  0  0  0  0  0  0  0  0
   -5.6710   14.4970   -1.1260 C   0  0  0  0  0  0  0  0  0  0  0  0
   -6.8830   14.4970   -0.2540 C   0  0  0  0  0  0  0  0  0  0  0  0
   -6.6540   14.6030    1.1010 N   0  0  0  0  0  0  0  0  0  0  0  0
   -8.0220   14.4120   -0.6740 O   0  0  0  0  0  0  0  0  0  0  0  0
  2  1  1  0
  2  3  1  0
  2  4  1  0
  2  5  1  0
  4  6  1  0
  4  7  2  0
  5  8  2  0
  5  9  1  0
  6 10  2  0
  7 11  1  0
  6 12  1  0
  8 13  1  0
  9 14  2  0
 10 15  1  0
 11 15  2  0
 10 16  1  0
 12 17  1  0
 16 17  1  0
 13 18  2  0
 14 18  1  0
 18 19  1  0
 19 20  1  0
 19 21  2  0
M  END
