mac-x0346-mac-x0305
     RDKit          3D

 15 15  0  0  0  0  0  0  0  0999 V2000
   -7.4440   14.1810    1.0560 O   0  0  0  0  0  0  0  0  0  0  0  0
   -7.4870   15.0340   -0.0700 N   0  0  0  0  0  0  0  0  0  0  0  0
   -6.4070   15.0650   -0.9320 C   0  0  0  0  0  0  0  0  0  0  0  0
   -6.6020   15.1210   -2.1370 O   0  0  0  0  0  0  0  0  0  0  0  0
   -5.0020   15.0010   -0.3810 C   0  0  0  0  0  0  0  0  0  0  0  0
   -3.8340   14.7510   -1.1560 C   0  0  0  0  0  0  0  0  0  0  0  0
   -4.8570   15.1930    0.9910 C   0  0  0  0  0  0  0  0  0  0  0  0
   -4.0170   14.5730   -2.5120 O   0  0  0  0  0  0  0  0  0  0  0  0
   -2.5270   14.6800   -0.5480 C   0  0  0  0  0  0  0  0  0  0  0  0
   -3.6120   15.1420    1.5920 C   0  0  0  0  0  0  0  0  0  0  0  0
   -1.2260   14.3880   -1.3040 C   0  0  0  0  0  0  0  0  0  0  0  0
   -2.4630   14.8880    0.8550 C   0  0  0  0  0  0  0  0  0  0  0  0
   -0.3680   13.6040   -0.5950 O   0  0  0  0  0  0  0  0  0  0  0  0
   -0.8600   14.7300   -2.4200 O   0  0  0  0  0  0  0  0  0  0  0  0
   -1.2910   14.8490    1.5720 O   0  0  0  0  0  0  0  0  0  0  0  0
  1  2  1  0
  2  3  1  0
  3  4  2  0
  3  5  1  0
  5  6  2  0
  5  7  1  0
  6  8  1  0
  6  9  1  0
  7 10  2  0
  9 11  1  0
  9 12  2  0
 10 12  1  0
 11 13  1  0
 11 14  2  0
 12 15  1  0
M  END
