mac-x0328-mac-x0379
     RDKit          3D

 10 10  0  0  0  0  0  0  0  0999 V2000
   -1.8560   14.7550   -3.8420 O   0  0  0  0  0  0  0  0  0  0  0  0
   -1.9040   14.7160   -2.4930 C   0  0  0  0  0  0  0  0  0  0  0  0
   -0.9170   14.5910   -1.7890 O   0  0  0  0  0  0  0  0  0  0  0  0
   -3.2730   14.8440   -1.9430 C   0  0  0  0  0  0  0  0  0  0  0  0
   -3.4460   14.7580   -0.5570 C   0  0  0  0  0  0  0  0  0  0  0  0
   -4.3790   15.0440   -2.7770 C   0  0  0  0  0  0  0  0  0  0  0  0
   -4.7200   14.8690   -0.0030 C   0  0  0  0  0  0  0  0  0  0  0  0
   -5.6530   15.1560   -2.2170 C   0  0  0  0  0  0  0  0  0  0  0  0
   -5.8140   15.0650   -0.8410 C   0  0  0  0  0  0  0  0  0  0  0  0
   -7.0810   15.1740   -0.3460 O   0  0  0  0  0  0  0  0  0  0  0  0
  1  2  1  0
  2  3  2  0
  2  4  1  0
  4  5  2  0
  4  6  1  0
  5  7  1  0
  6  8  2  0
  7  9  2  0
  8  9  1  0
  9 10  1  0
M  END
