mac-x0124-mac-x0223
     RDKit          3D

 25 27  0  0  0  0  0  0  0  0999 V2000
   -0.2610   16.0800   -2.9820 C   0  0  0  0  0  0  0  0  0  0  0  0
   -1.4030   15.4260   -2.3840 N   0  0  0  0  0  0  0  0  0  0  0  0
   -2.7340   15.7800   -2.5690 C   0  0  0  0  0  0  0  0  0  0  0  0
   -1.2490   15.2960   -0.9580 C   0  0  1  0  0  0  0  0  0  0  0  0
   -3.5010   15.3430   -1.5620 C   0  0  0  0  0  0  0  0  0  0  0  0
   -2.5970   14.6130   -0.6080 C   0  0  2  0  0  0  0  0  0  0  0  0
   -0.1060   14.6840   -0.3550 N   0  0  0  0  0  0  0  0  0  0  0  0
    0.1280   13.4090   -1.0160 C   0  0  0  0  0  0  0  0  0  0  0  0
   -2.7260   14.6020    0.9100 C   0  0  2  0  0  0  0  0  0  0  0  0
   -0.3160   14.5310    1.0820 C   0  0  0  0  0  0  0  0  0  0  0  0
   -3.8360   15.3310    1.4750 N   0  0  0  0  0  0  0  0  0  0  0  0
    0.8560   13.5310   -2.2550 O   0  0  0  0  0  0  0  0  0  0  0  0
   -1.5500   15.1960    1.4970 N   0  0  0  0  0  0  0  0  0  0  0  0
    0.5400   12.6020   -3.2170 C   0  0  0  0  0  0  0  0  0  0  0  0
    0.6510   13.2450   -4.5990 C   0  0  0  0  0  0  0  0  0  0  0  0
    0.2210   11.4420   -2.9770 O   0  0  0  0  0  0  0  0  0  0  0  0
   -0.1510   14.5260   -4.7230 C   0  0  0  0  0  0  0  0  0  0  0  0
   -1.5580   14.4830   -4.7920 C   0  0  0  0  0  0  0  0  0  0  0  0
    0.4990   15.7800   -4.7600 C   0  0  0  0  0  0  0  0  0  0  0  0
   -0.2550   16.9580   -4.8480 C   0  0  0  0  0  0  0  0  0  0  0  0
   -2.3070   15.6650   -4.8850 C   0  0  0  0  0  0  0  0  0  0  0  0
    0.2130   18.2320   -4.8840 O   0  0  0  0  0  0  0  0  0  0  0  0
   -1.6370   16.8860   -4.9030 C   0  0  0  0  0  0  0  0  0  0  0  0
    1.2580   18.4420   -5.8030 C   0  0  0  0  0  0  0  0  0  0  0  0
   -2.3410   18.0580   -4.9700 O   0  0  0  0  0  0  0  0  0  0  0  0
  1  2  1  0
  2  3  1  0
  4  2  1  6
  3  5  2  0
  4  6  1  0
  6  5  1  6
  4  7  1  0
  7  8  1  0
  6  9  1  0
  7 10  1  0
  9 11  1  6
  8 12  1  0
  9 13  1  0
 10 13  1  0
 12 14  1  0
 14 15  1  0
 14 16  2  0
 15 17  1  0
 17 18  2  0
 17 19  1  0
 19 20  2  0
 18 21  1  0
 20 22  1  0
 20 23  1  0
 21 23  2  0
 22 24  1  0
 23 25  1  0
M  END
