mac-x0361-mac-x0282
     RDKit          3D

 17 19  0  0  0  0  0  0  0  0999 V2000
   -6.3460   14.7260    1.6640 N   0  0  0  0  0  0  0  0  0  0  0  0
   -6.6930   14.7120    0.3370 C   0  0  0  0  0  0  0  0  0  0  0  0
   -7.8590   14.6270   -0.0090 O   0  0  0  0  0  0  0  0  0  0  0  0
   -5.5950   14.8030   -0.6450 C   0  0  0  0  0  0  0  0  0  0  0  0
   -4.2500   14.7570   -0.2740 C   0  0  0  0  0  0  0  0  0  0  0  0
   -5.8970   14.9380   -2.0090 C   0  0  0  0  0  0  0  0  0  0  0  0
   -3.2340   14.8400   -1.2310 C   0  0  0  0  0  0  0  0  0  0  0  0
   -4.8930   15.0190   -2.9640 C   0  0  0  0  0  0  0  0  0  0  0  0
   -3.6400   14.6310    0.9620 N   0  0  0  0  0  0  0  0  0  0  0  0
   -3.5660   14.9750   -2.5810 C   0  0  0  0  0  0  0  0  0  0  0  0
   -2.0150   14.7620   -0.5540 C   0  0  0  0  0  0  0  0  0  0  0  0
   -2.2920   14.6390    0.7970 C   0  0  0  0  0  0  0  0  0  0  0  0
   -2.6230   15.0670   -3.5840 O   0  0  0  0  0  0  0  0  0  0  0  0
   -0.6830   14.7830   -0.9540 C   0  0  0  0  0  0  0  0  0  0  0  0
   -1.4140   14.5390    1.7860 N   0  0  0  0  0  0  0  0  0  0  0  0
    0.2640   14.6820    0.0310 C   0  0  0  0  0  0  0  0  0  0  0  0
   -0.1480   14.5650    1.3500 C   0  0  0  0  0  0  0  0  0  0  0  0
  1  2  1  0
  2  3  2  0
  2  4  1  0
  4  5  2  0
  4  6  1  0
  5  7  1  0
  6  8  2  0
  5  9  1  0
  7 10  2  0
  8 10  1  0
  7 11  1  0
  9 12  1  0
 11 12  2  0
 10 13  1  0
 11 14  1  0
 12 15  1  0
 14 16  2  0
 15 17  2  0
 16 17  1  0
M  END
