mac-x0392-diamond-x0962_0_A
     RDKit          3D

 16 17  0  0  0  0  0  0  0  0999 V2000
    0.3770   13.6220   -0.2490 N   0  0  0  0  0  0  0  0  0  0  0  0
   -0.7860   14.3150    0.1110 C   0  0  0  0  0  0  0  0  0  0  0  0
   -1.1850   14.3600    1.4230 C   0  0  0  0  0  0  0  0  0  0  0  0
   -1.6050   14.9830   -0.7960 C   0  0  0  0  0  0  0  0  0  0  0  0
   -1.3230   14.9860   -2.2180 C   0  0  0  0  0  0  0  0  0  0  0  0
   -2.7420   15.6670   -0.3800 C   0  0  0  0  0  0  0  0  0  0  0  0
   -2.2800   14.9930    1.8690 N   0  0  0  0  0  0  0  0  0  0  0  0
   -2.2810   14.9550   -3.0530 N   0  0  0  0  0  0  0  0  0  0  0  0
   -0.0040   15.0120   -2.4970 O   0  0  0  0  0  0  0  0  0  0  0  0
   -3.0400   15.6460    0.9620 C   0  0  0  0  0  0  0  0  0  0  0  0
   -3.7270   14.9280   -2.6980 C   0  0  0  0  0  0  0  0  0  0  0  0
   -4.2090   14.7880   -1.2690 C   0  0  0  0  0  0  0  0  0  0  0  0
   -3.6500   14.0180   -0.2700 N   0  0  0  0  0  0  0  0  0  0  0  0
   -5.3040   15.3710   -0.6450 C   0  0  0  0  0  0  0  0  0  0  0  0
   -4.4090   14.1700    0.8550 C   0  0  0  0  0  0  0  0  0  0  0  0
   -5.4200   14.9830    0.6620 N   0  0  0  0  0  0  0  0  0  0  0  0
  1  2  1  0
  2  3  2  0
  2  4  1  0
  4  5  1  0
  4  6  2  0
  3  7  1  0
  5  8  2  3
  5  9  1  0
  6 10  1  0
  7 10  2  0
  8 11  1  0
 11 12  1  0
 12 13  1  0
 12 14  2  0
 13 15  1  0
 14 16  1  0
 15 16  2  0
M  END
