mac-x0387-mac-x0411
     RDKit          3D

 25 27  0  0  0  0  0  0  0  0999 V2000
   -3.7810   15.4830    1.7760 N   0  0  0  0  0  0  0  0  0  0  0  0
   -2.6270   15.0540    1.1050 C   0  0  0  0  0  0  0  0  0  0  0  0
   -1.5570   14.8890    1.8870 N   0  0  0  0  0  0  0  0  0  0  0  0
   -2.6140   14.8210   -0.2780 C   0  0  0  0  0  0  0  0  0  0  0  0
   -1.3950   14.3870   -0.8460 C   0  0  0  0  0  0  0  0  0  0  0  0
   -0.4120   14.4840    1.3210 C   0  0  0  0  0  0  0  0  0  0  0  0
   -3.7310   14.9890   -1.1190 C   0  0  0  0  0  0  0  0  0  0  0  0
   -0.2750   14.2230   -0.0230 C   0  0  0  0  0  0  0  0  0  0  0  0
   -1.3350   14.1210   -2.2240 C   0  0  0  0  0  0  0  0  0  0  0  0
   -3.6610   14.7190   -2.4860 C   0  0  0  0  0  0  0  0  0  0  0  0
   -2.4620   14.2700   -3.0540 C   0  0  0  0  0  0  0  0  0  0  0  0
   -2.3790   13.9320   -4.5330 C   0  0  0  0  0  0  0  0  0  0  0  0
   -1.2180   12.9580   -4.8330 C   0  0  0  0  0  0  0  0  0  0  0  0
   -1.4700   11.5810   -5.4650 C   0  0  0  0  0  0  0  0  0  0  0  0
   -0.4430   10.9070   -6.1780 C   0  0  0  0  0  0  0  0  0  0  0  0
   -2.7230   10.9360   -5.3600 C   0  0  0  0  0  0  0  0  0  0  0  0
    0.8050   11.4920   -6.3030 O   0  0  0  0  0  0  0  0  0  0  0  0
   -2.9460    9.6770   -5.9410 C   0  0  0  0  0  0  0  0  0  0  0  0
   -0.6820    9.6440   -6.7650 C   0  0  0  0  0  0  0  0  0  0  0  0
    0.5240    8.7850   -7.6610 Cl  0  0  0  0  0  0  0  0  0  0  0  0
    1.1840   12.4720   -5.3040 C   0  0  0  0  0  0  0  0  0  0  0  0
   -1.9290    9.0350   -6.6420 C   0  0  0  0  0  0  0  0  0  0  0  0
    0.9780   11.9220   -3.8920 C   0  0  0  0  0  0  0  0  0  0  0  0
    1.5490   12.6800   -2.9270 O   0  0  0  0  0  0  0  0  0  0  0  0
    0.3800   10.8900   -3.6270 O   0  0  0  0  0  0  0  0  0  0  0  0
  1  2  1  0
  2  3  2  0
  2  4  1  0
  4  5  2  0
  3  6  1  0
  4  7  1  0
  5  8  1  0
  6  8  2  0
  5  9  1  0
  7 10  2  0
  9 11  2  0
 10 11  1  0
 11 12  1  0
 12 13  1  0
 13 14  1  0
 14 15  2  0
 14 16  1  0
 15 17  1  0
 16 18  2  0
 15 19  1  0
 19 20  1  0
 17 21  1  0
 18 22  1  0
 19 22  2  0
 21 23  1  0
 23 24  1  0
 23 25  2  0
M  END
