mac-x0228-diamond-x0950_0_A
     RDKit          3D

 20 21  0  0  0  0  0  0  0  0999 V2000
   -1.0400   15.0690   -1.7440 O   0  0  0  0  0  0  0  0  0  0  0  0
   -2.0260   14.4810   -2.5550 C   0  0  0  0  0  0  0  0  0  0  0  0
   -1.9060   15.1030   -3.8240 O   0  0  0  0  0  0  0  0  0  0  0  0
   -1.6830   13.0010   -2.6900 C   0  0  0  0  0  0  0  0  0  0  0  0
   -3.4340   14.6830   -2.0140 C   0  0  0  0  0  0  0  0  0  0  0  0
   -0.6630   12.5440   -1.6570 C   0  0  0  0  0  0  0  0  0  0  0  0
   -3.7270   14.4680   -0.6530 C   0  0  0  0  0  0  0  0  0  0  0  0
   -4.4800   15.0840   -2.8750 C   0  0  0  0  0  0  0  0  0  0  0  0
    0.6650   12.7740   -2.1490 O   0  0  0  0  0  0  0  0  0  0  0  0
   -5.0260   14.6490   -0.2150 C   0  0  0  0  0  0  0  0  0  0  0  0
   -5.7850   15.2630   -2.4060 C   0  0  0  0  0  0  0  0  0  0  0  0
    0.9790   11.9350   -3.1530 C   0  0  0  0  0  0  0  0  0  0  0  0
   -6.0310   15.0400   -1.0780 C   0  0  0  0  0  0  0  0  0  0  0  0
   -5.5930   14.4760    1.1350 C   0  0  0  0  0  0  0  0  0  0  0  0
    1.6010   12.6630   -4.3430 C   0  0  1  0  0  0  0  0  0  0  0  0
    0.7830   10.7300   -3.1230 O   0  0  0  0  0  0  0  0  0  0  0  0
   -7.2560   15.1690   -0.4780 O   0  0  0  0  0  0  0  0  0  0  0  0
   -7.0810   14.4800    0.7810 C   0  0  0  0  0  0  0  0  0  0  0  0
    3.0940   12.4150   -4.3790 C   0  0  0  0  0  0  0  0  0  0  0  0
    1.0290   12.2080   -5.5700 O   0  0  0  0  0  0  0  0  0  0  0  0
  2  1  1  0
  2  3  1  0
  2  4  1  0
  2  5  1  0
  4  6  1  0
  5  7  2  0
  5  8  1  0
  6  9  1  0
  7 10  1  0
  8 11  2  0
  9 12  1  0
 10 13  2  0
 11 13  1  0
 10 14  1  0
 12 15  1  0
 12 16  2  0
 13 17  1  0
 14 18  1  0
 17 18  1  0
 15 19  1  6
 15 20  1  0
M  END
