mac-x0188-mac-x0361
     RDKit          3D

 19 20  0  0  0  0  0  0  0  0999 V2000
    1.5650   13.4320   -4.9730 C   0  0  0  0  0  0  0  0  0  0  0  0
    0.2480   13.6930   -4.3600 C   0  0  0  0  0  0  0  0  0  0  0  0
   -0.8080   13.6610   -5.2080 O   0  0  0  0  0  0  0  0  0  0  0  0
   -0.1860   13.9730   -3.0700 C   0  0  0  0  0  0  0  0  0  0  0  0
    0.6430   14.0950   -1.8930 C   0  0  0  0  0  0  0  0  0  0  0  0
   -1.9570   13.9100   -4.5050 N   0  0  0  0  0  0  0  0  0  0  0  0
   -1.6000   14.0970   -3.2130 C   0  0  0  0  0  0  0  0  0  0  0  0
    1.3000   15.0800   -1.6310 O   0  0  0  0  0  0  0  0  0  0  0  0
    0.6920   13.0360   -1.0350 O   0  0  0  0  0  0  0  0  0  0  0  0
   -2.6850   14.3580   -2.2670 C   0  0  0  0  0  0  0  0  0  0  0  0
   -3.8160   15.0180   -2.7210 C   0  0  0  0  0  0  0  0  0  0  0  0
   -2.6420   13.9470   -0.9330 C   0  0  0  0  0  0  0  0  0  0  0  0
   -3.8670   15.4440   -4.0160 O   0  0  0  0  0  0  0  0  0  0  0  0
   -4.9220   15.2490   -1.8930 C   0  0  0  0  0  0  0  0  0  0  0  0
   -3.7370   14.1690   -0.0850 C   0  0  0  0  0  0  0  0  0  0  0  0
   -4.8910   14.8030   -0.5630 C   0  0  0  0  0  0  0  0  0  0  0  0
   -6.0650   14.9620    0.3530 C   0  0  0  0  0  0  0  0  0  0  0  0
   -5.9150   14.9800    1.7210 N   0  0  0  0  0  0  0  0  0  0  0  0
   -7.2010   15.0410   -0.1100 O   0  0  0  0  0  0  0  0  0  0  0  0
  1  2  1  0
  2  3  1  0
  2  4  2  0
  4  5  1  0
  3  6  1  0
  4  7  1  0
  6  7  2  0
  5  8  2  0
  5  9  1  0
  7 10  1  0
 10 11  2  0
 10 12  1  0
 11 13  1  0
 11 14  1  0
 12 15  2  0
 14 16  2  0
 15 16  1  0
 16 17  1  0
 17 18  1  0
 17 19  2  0
M  END
