mac-x0496-mac-x0398
     RDKit          3D

 20 21  0  0  0  0  0  0  0  0999 V2000
   -9.8750   17.8050    4.7810 C   0  0  0  0  0  0  0  0  0  0  0  0
   -9.9650   16.8020    3.7030 C   0  0  0  0  0  0  0  0  0  0  0  0
  -11.0270   16.6730    2.8980 N   0  0  0  0  0  0  0  0  0  0  0  0
   -8.9560   15.9160    3.4540 N   0  0  0  0  0  0  0  0  0  0  0  0
  -10.6700   15.6260    2.0460 O   0  0  0  0  0  0  0  0  0  0  0  0
   -9.4240   15.2220    2.4440 C   0  0  0  0  0  0  0  0  0  0  0  0
   -8.7960   14.0970    1.7120 C   0  0  0  0  0  0  0  0  0  0  0  0
   -7.3850   14.3540    1.5420 N   0  0  0  0  0  0  0  0  0  0  0  0
   -6.8710   14.6930    0.3200 C   0  0  0  0  0  0  0  0  0  0  0  0
   -7.5950   14.9260   -0.6370 O   0  0  0  0  0  0  0  0  0  0  0  0
   -5.3860   14.7710    0.1540 C   0  0  0  0  0  0  0  0  0  0  0  0
   -4.6040   14.7180    1.3200 C   0  0  0  0  0  0  0  0  0  0  0  0
   -4.7550   14.8880   -1.0940 C   0  0  0  0  0  0  0  0  0  0  0  0
   -5.5430   14.9520   -2.2350 O   0  0  0  0  0  0  0  0  0  0  0  0
   -3.2160   14.7730    1.2610 C   0  0  0  0  0  0  0  0  0  0  0  0
   -3.3500   14.9360   -1.1560 C   0  0  0  0  0  0  0  0  0  0  0  0
   -2.6750   15.0400   -2.4730 C   0  0  0  0  0  0  0  0  0  0  0  0
   -2.5860   14.8790    0.0230 C   0  0  0  0  0  0  0  0  0  0  0  0
   -1.4790   14.8370   -2.6370 O   0  0  0  0  0  0  0  0  0  0  0  0
   -3.4730   15.3790   -3.4920 O   0  0  0  0  0  0  0  0  0  0  0  0
  1  2  1  0
  2  3  2  0
  2  4  1  0
  3  5  1  0
  4  6  2  0
  5  6  1  0
  6  7  1  0
  7  8  1  0
  8  9  1  0
  9 10  2  0
  9 11  1  0
 11 12  2  0
 11 13  1  0
 13 14  1  0
 12 15  1  0
 13 16  2  0
 16 17  1  0
 15 18  2  0
 16 18  1  0
 17 19  2  0
 17 20  1  0
M  END
