mac-x0231-diamond-x0900_1_A
     RDKit          3D

 23 25  0  0  0  0  0  0  0  0999 V2000
    0.8200   10.5210   -3.0200 O   0  0  0  0  0  0  0  0  0  0  0  0
    1.2360   11.7860   -3.2090 C   0  0  0  0  0  0  0  0  0  0  0  0
    1.7460   12.4000   -2.2930 O   0  0  0  0  0  0  0  0  0  0  0  0
    0.9510   12.3110   -4.5860 C   0  0  2  0  0  0  0  0  0  0  0  0
    1.7020   11.7680   -5.8050 C   0  0  0  0  0  0  0  0  0  0  0  0
    0.8140   13.8210   -4.6220 C   0  0  0  0  0  0  0  0  0  0  0  0
    1.1930   10.3720   -6.2260 C   0  0  0  0  0  0  0  0  0  0  0  0
   -0.5340   14.3110   -4.8920 C   0  0  0  0  0  0  0  0  0  0  0  0
    1.8430   14.5930   -4.4010 N   0  0  0  0  0  0  0  0  0  0  0  0
   -0.7340   15.6800   -4.8870 C   0  0  0  0  0  0  0  0  0  0  0  0
    1.6320   15.9440   -4.4350 N   0  0  0  0  0  0  0  0  0  0  0  0
   -1.5990   13.4470   -5.1470 C   0  0  0  0  0  0  0  0  0  0  0  0
   -0.1350   10.2530   -6.9650 C   0  0  1  0  0  0  0  0  0  0  0  0
    0.4140   16.5650   -4.6230 C   0  0  0  0  0  0  0  0  0  0  0  0
   -2.0140   16.1960   -5.1330 C   0  0  0  0  0  0  0  0  0  0  0  0
   -2.8680   13.9510   -5.3930 C   0  0  0  0  0  0  0  0  0  0  0  0
    0.0750    9.7290   -8.2760 N   0  0  0  0  0  0  0  0  0  0  0  0
   -1.1140    9.1920   -6.4540 C   0  0  0  0  0  0  0  0  0  0  0  0
    0.2750   17.7840   -4.5780 O   0  0  0  0  0  0  0  0  0  0  0  0
   -3.0790   15.3270   -5.3860 C   0  0  0  0  0  0  0  0  0  0  0  0
   -1.1430    9.4570   -8.8130 C   0  0  0  0  0  0  0  0  0  0  0  0
   -2.0200    8.9780   -7.6780 C   0  0  0  0  0  0  0  0  0  0  0  0
   -1.4310    9.5920   -9.9860 O   0  0  0  0  0  0  0  0  0  0  0  0
  1  2  1  0
  2  3  2  0
  2  4  1  0
  4  5  1  6
  4  6  1  0
  5  7  1  0
  6  8  1  0
  6  9  2  0
  8 10  2  0
  9 11  1  0
  8 12  1  0
 13  7  1  1
 10 14  1  0
 11 14  1  0
 10 15  1  0
 12 16  2  0
 13 17  1  0
 13 18  1  0
 14 19  2  0
 15 20  2  0
 16 20  1  0
 17 21  1  0
 18 22  1  0
 21 22  1  0
 21 23  2  0
M  END
