mac-x0263-mac-x0213
     RDKit          3D

 29 32  0  0  0  0  0  0  0  0999 V2000
  -11.4360   14.2060    2.4730 O   0  0  0  0  0  0  0  0  0  0  0  0
  -10.6780   15.2880    2.7330 C   0  0  0  0  0  0  0  0  0  0  0  0
  -10.9720   16.0010    3.6750 O   0  0  0  0  0  0  0  0  0  0  0  0
   -9.5120   15.4910    1.8030 C   0  0  0  0  0  0  0  0  0  0  0  0
   -8.7980   14.2100    1.3770 C   0  0  0  0  0  0  0  0  0  0  0  0
   -7.4460   14.5330    0.8360 C   0  0  0  0  0  0  0  0  0  0  0  0
   -7.2000   14.7810   -0.4940 N   0  0  0  0  0  0  0  0  0  0  0  0
   -6.3430   14.6290    1.5370 N   0  0  0  0  0  0  0  0  0  0  0  0
   -5.8570   15.0580   -0.6360 C   0  0  0  0  0  0  0  0  0  0  0  0
   -5.3490   14.9570    0.6480 C   0  0  0  0  0  0  0  0  0  0  0  0
   -5.0630   15.3800   -1.7360 C   0  0  0  0  0  0  0  0  0  0  0  0
   -3.9810   15.1870    0.8790 C   0  0  0  0  0  0  0  0  0  0  0  0
   -3.6940   15.6100   -1.4900 C   0  0  0  0  0  0  0  0  0  0  0  0
   -3.1400   15.5210   -0.1960 C   0  0  0  0  0  0  0  0  0  0  0  0
   -1.6580   15.7890    0.0660 C   0  0  0  0  0  0  0  0  0  0  0  0
   -0.7210   14.5900    0.2270 C   0  0  0  0  0  0  0  0  0  0  0  0
    0.3350   14.4610   -0.8850 C   0  0  0  0  0  0  0  0  0  0  0  0
    0.4730   13.1090   -1.3950 N   0  0  0  0  0  0  0  0  0  0  0  0
    0.3900   12.7680   -2.6340 C   0  0  0  0  0  0  0  0  0  0  0  0
    0.5050   11.4810   -3.0130 O   0  0  0  0  0  0  0  0  0  0  0  0
    0.1490   13.7110   -3.8250 C   0  0  0  0  0  0  0  0  0  0  0  0
   -1.3230   14.1920   -3.8910 C   0  0  0  0  0  0  0  0  0  0  0  0
    1.0230   14.9940   -3.8330 C   0  0  0  0  0  0  0  0  0  0  0  0
   -1.2090   15.5660   -4.4950 C   0  0  0  0  0  0  0  0  0  0  0  0
    0.1130   16.0150   -4.4570 C   0  0  0  0  0  0  0  0  0  0  0  0
   -2.2180   16.3510   -5.0360 C   0  0  0  0  0  0  0  0  0  0  0  0
    0.4480   17.2680   -4.9600 C   0  0  0  0  0  0  0  0  0  0  0  0
   -1.8810   17.6120   -5.5460 C   0  0  0  0  0  0  0  0  0  0  0  0
   -0.5570   18.0620   -5.5040 C   0  0  0  0  0  0  0  0  0  0  0  0
  1  2  1  0
  2  3  2  0
  2  4  1  0
  4  5  1  0
  5  6  1  0
  6  7  1  0
  6  8  2  0
  7  9  1  0
  8 10  1  0
  9 10  2  0
  9 11  1  0
 10 12  1  0
 11 13  2  0
 12 14  2  0
 13 14  1  0
 14 15  1  0
 15 16  1  0
 16 17  1  0
 17 18  1  0
 18 19  2  3
 19 20  1  0
 19 21  1  0
 21 22  1  0
 21 23  1  0
 22 24  1  0
 23 25  1  0
 24 25  2  0
 24 26  1  0
 25 27  1  0
 26 28  2  0
 27 29  2  0
 28 29  1  0
M  END
