mac-x0360-diamond-x0950_1_A
     RDKit          3D

 21 21  0  0  0  0  0  0  0  0999 V2000
   -7.6440   11.6280    1.7230 Cl  0  0  0  0  0  0  0  0  0  0  0  0
   -6.4460   11.8880    0.5180 C   0  0  0  0  0  0  0  0  0  0  0  0
   -6.2580   10.9350   -0.4800 C   0  0  0  0  0  0  0  0  0  0  0  0
   -5.6730   13.0440    0.5450 C   0  0  0  0  0  0  0  0  0  0  0  0
   -4.7010   13.2480   -0.4390 C   0  0  0  0  0  0  0  0  0  0  0  0
   -5.2840   11.1420   -1.4530 C   0  0  0  0  0  0  0  0  0  0  0  0
   -5.0540    9.9520   -2.6780 Cl  0  0  0  0  0  0  0  0  0  0  0  0
   -3.7260   14.7360   -0.4050 S   0  0  0  0  0  0  0  0  0  0  0  0
   -4.4970   12.2910   -1.4450 C   0  0  0  0  0  0  0  0  0  0  0  0
   -2.7370   14.5520   -1.7580 N   0  0  0  0  0  0  0  0  0  0  0  0
   -4.6170   15.8280   -0.7230 O   0  0  0  0  0  0  0  0  0  0  0  0
   -2.9010   14.7500    0.7790 O   0  0  0  0  0  0  0  0  0  0  0  0
   -1.5650   13.6720   -1.6210 C   0  0  0  0  0  0  0  0  0  0  0  0
   -0.2700   14.4750   -1.7760 C   0  0  0  0  0  0  0  0  0  0  0  0
    0.9540   13.7650   -1.2200 C   0  0  0  0  0  0  0  0  0  0  0  0
    1.6930   12.9830   -2.1810 O   0  0  0  0  0  0  0  0  0  0  0  0
    0.9980   12.1510   -3.0190 C   0  0  0  0  0  0  0  0  0  0  0  0
    1.3350   12.5160   -4.4800 C   0  0  2  0  0  0  0  0  0  0  0  0
    0.2460   11.2560   -2.6540 O   0  0  0  0  0  0  0  0  0  0  0  0
    1.0310   13.9640   -4.8030 C   0  0  0  0  0  0  0  0  0  0  0  0
    0.6320   11.7020   -5.4180 O   0  0  0  0  0  0  0  0  0  0  0  0
  1  2  1  0
  2  3  2  0
  2  4  1  0
  4  5  2  0
  3  6  1  0
  6  7  1  0
  5  8  1  0
  5  9  1  0
  6  9  2  0
  8 10  1  0
  8 11  2  0
  8 12  2  0
 10 13  1  0
 13 14  1  0
 14 15  1  0
 15 16  1  0
 16 17  1  0
 17 18  1  0
 17 19  2  0
 18 20  1  6
 18 21  1  0
M  END
