mac-x0522-diamond-x0253_0_A
     RDKit          3D

 29 31  0  0  0  0  0  0  0  0999 V2000
    1.4770    7.9340  -12.1000 O   0  0  0  0  0  0  0  0  0  0  0  0
    2.2850    8.9390  -11.5490 C   0  0  2  0  0  0  0  0  0  0  0  0
    3.0680    8.2460  -10.5070 N   0  0  0  0  0  0  0  0  0  0  0  0
    1.1790    9.9730  -11.0840 C   0  0  0  0  0  0  0  0  0  0  0  0
    3.1100    9.6040  -12.6620 C   0  0  0  0  0  0  0  0  0  0  0  0
    2.5880    7.3820   -9.5560 C   0  0  0  0  0  0  0  0  0  0  0  0
    4.2650    9.0000  -13.2080 C   0  0  0  0  0  0  0  0  0  0  0  0
    2.7330   10.8600  -13.1860 C   0  0  0  0  0  0  0  0  0  0  0  0
    0.5020    9.8700   -9.7340 C   0  0  0  0  0  0  0  0  0  0  0  0
    3.0400    6.1430   -9.4500 N   0  0  0  0  0  0  0  0  0  0  0  0
    1.3730    7.7660   -8.3990 S   0  0  0  0  0  0  0  0  0  0  0  0
    4.9920    9.6240  -14.2240 C   0  0  0  0  0  0  0  0  0  0  0  0
    3.4600   11.4780  -14.1980 C   0  0  0  0  0  0  0  0  0  0  0  0
    0.9530   10.7210   -8.7510 C   0  0  0  0  0  0  0  0  0  0  0  0
   -0.5360    8.9760   -9.4280 C   0  0  0  0  0  0  0  0  0  0  0  0
    1.4550    6.2020   -7.7350 C   0  0  0  0  0  0  0  0  0  0  0  0
    2.3930    5.4790   -8.4180 C   0  0  0  0  0  0  0  0  0  0  0  0
    4.5910   10.8620  -14.7210 C   0  0  0  0  0  0  0  0  0  0  0  0
   -1.0860    8.9580   -8.1270 C   0  0  0  0  0  0  0  0  0  0  0  0
    0.4400   10.7230   -7.4620 C   0  0  0  0  0  0  0  0  0  0  0  0
   -2.1950    8.0070   -7.7820 C   0  0  0  0  0  0  0  0  0  0  0  0
    1.0280   11.6800   -6.4790 C   0  0  0  0  0  0  0  0  0  0  0  0
   -0.5880    9.8330   -7.1470 C   0  0  0  0  0  0  0  0  0  0  0  0
    0.2990   11.9970   -5.3710 N   0  0  0  0  0  0  0  0  0  0  0  0
    2.1400   12.1500   -6.6350 O   0  0  0  0  0  0  0  0  0  0  0  0
    0.9160   12.8820   -4.4020 C   0  0  0  0  0  0  0  0  0  0  0  0
    0.8250   12.3130   -3.0010 C   0  0  0  0  0  0  0  0  0  0  0  0
    1.1690   12.8820   -1.9810 O   0  0  0  0  0  0  0  0  0  0  0  0
    0.3110   11.0720   -2.9380 O   0  0  0  0  0  0  0  0  0  0  0  0
  2  1  1  6
  2  3  1  0
  2  4  1  0
  2  5  1  0
  3  6  1  0
  5  7  2  0
  5  8  1  0
  4  9  1  0
  6 10  2  0
  6 11  1  0
  7 12  1  0
  8 13  2  0
  9 14  2  0
  9 15  1  0
 11 16  1  0
 10 17  1  0
 16 17  2  0
 12 18  2  0
 13 18  1  0
 15 19  2  0
 14 20  1  0
 19 21  1  0
 20 22  1  0
 19 23  1  0
 20 23  2  0
 22 24  1  0
 22 25  2  0
 24 26  1  0
 26 27  1  0
 27 28  2  0
 27 29  1  0
M  END
