mac-x0263-mac-x0397
     RDKit          3D

 16 17  0  0  0  0  0  0  0  0999 V2000
  -11.6340   14.3570    2.5460 O   0  0  0  0  0  0  0  0  0  0  0  0
  -10.9280   15.4670    2.8430 C   0  0  0  0  0  0  0  0  0  0  0  0
  -11.3030   16.2800    3.6730 O   0  0  0  0  0  0  0  0  0  0  0  0
   -9.6520   15.6380    2.0710 C   0  0  0  0  0  0  0  0  0  0  0  0
   -9.2010   14.3640    1.3750 C   0  0  0  0  0  0  0  0  0  0  0  0
   -7.8560   14.5770    0.7870 C   0  0  0  0  0  0  0  0  0  0  0  0
   -7.5420   14.5990   -0.4850 N   0  0  0  0  0  0  0  0  0  0  0  0
   -6.7720   14.7950    1.5710 N   0  0  0  0  0  0  0  0  0  0  0  0
   -6.8380   14.8400    2.9770 N   0  0  0  0  0  0  0  0  0  0  0  0
   -6.1860   14.8430   -0.5090 C   0  0  0  0  0  0  0  0  0  0  0  0
   -5.6640   14.9640    0.7720 C   0  0  0  0  0  0  0  0  0  0  0  0
   -5.3260   14.9760   -1.5860 C   0  0  0  0  0  0  0  0  0  0  0  0
   -4.3030   15.2070    1.0110 C   0  0  0  0  0  0  0  0  0  0  0  0
   -6.0920   14.8040   -3.0840 Cl  0  0  0  0  0  0  0  0  0  0  0  0
   -3.9700   15.2210   -1.4080 C   0  0  0  0  0  0  0  0  0  0  0  0
   -3.4710   15.3280   -0.1070 C   0  0  0  0  0  0  0  0  0  0  0  0
  1  2  1  0
  2  3  2  0
  2  4  1  0
  4  5  1  0
  5  6  1  0
  6  7  2  0
  6  8  1  0
  8  9  1  0
  7 10  1  0
  8 11  1  0
 10 11  2  0
 10 12  1  0
 11 13  1  0
 12 14  1  0
 12 15  2  0
 13 16  2  0
 15 16  1  0
M  END
