mac-x0472-mac-x0282
     RDKit          3D

 19 21  0  0  0  0  0  0  0  0999 V2000
   -4.6330   15.0570   -2.3860 O   0  0  0  0  0  0  0  0  0  0  0  0
   -3.6190   14.0310   -2.4810 S   0  0  0  0  0  0  0  0  0  0  0  0
   -2.6380   14.0080   -3.5440 O   0  0  0  0  0  0  0  0  0  0  0  0
   -2.8520   13.8410   -1.0330 N   0  0  0  0  0  0  0  0  0  0  0  0
   -4.3570   12.4560   -2.2990 C   0  0  0  0  0  0  0  0  0  0  0  0
   -2.6210   15.0200   -0.2970 C   0  0  2  0  0  0  0  0  0  0  0  0
   -3.6430   11.3440   -2.7390 C   0  0  0  0  0  0  0  0  0  0  0  0
   -5.6160   12.3410   -1.7160 C   0  0  0  0  0  0  0  0  0  0  0  0
   -2.0630   14.6500    1.0260 N   0  0  0  0  0  0  0  0  0  0  0  0
   -4.1790   15.8210    0.0760 S   0  0  0  0  0  0  0  0  0  0  0  0
   -4.2070   10.0860   -2.5920 C   0  0  0  0  0  0  0  0  0  0  0  0
   -6.1720   11.0770   -1.5720 C   0  0  0  0  0  0  0  0  0  0  0  0
   -1.6520   15.7500   -1.1190 C   0  0  0  0  0  0  0  0  0  0  0  0
   -3.9850   15.3630    1.7440 C   0  0  0  0  0  0  0  0  0  0  0  0
   -2.8860   14.7810    2.0840 N   0  0  0  0  0  0  0  0  0  0  0  0
   -5.4700    9.9510   -2.0100 C   0  0  0  0  0  0  0  0  0  0  0  0
   -0.3900   15.8330   -0.7890 C   0  0  0  0  0  0  0  0  0  0  0  0
   -0.7460   14.6330    1.3350 N   0  0  0  0  0  0  0  0  0  0  0  0
    0.0190   15.2010    0.4710 C   0  0  0  0  0  0  0  0  0  0  0  0
  1  2  2  0
  2  3  2  0
  2  4  1  0
  2  5  1  0
  6  4  1  6
  5  7  2  0
  5  8  1  0
  6  9  1  0
  6 10  1  0
  7 11  1  0
  8 12  2  0
  6 13  1  0
 10 14  1  0
  9 15  1  0
 14 15  2  0
 11 16  2  0
 12 16  1  0
 13 17  2  0
  9 18  1  0
 17 19  1  0
 18 19  2  0
M  END
