mac-x0411-diamond-x0159_0_B
     RDKit          3D

 34 37  0  0  0  0  0  0  0  0999 V2000
    0.3530    8.3160   -7.1180 Cl  0  0  0  0  0  0  0  0  0  0  0  0
   -0.9690    9.2640   -6.5450 C   0  0  0  0  0  0  0  0  0  0  0  0
   -0.8170   10.6140   -6.1600 C   0  0  0  0  0  0  0  0  0  0  0  0
   -2.1930    8.6160   -6.4920 C   0  0  0  0  0  0  0  0  0  0  0  0
    0.4720   11.1510   -6.2540 N   0  0  0  0  0  0  0  0  0  0  0  0
   -1.9670   11.2960   -5.7270 C   0  0  0  0  0  0  0  0  0  0  0  0
   -3.3140    9.3000   -6.0570 C   0  0  0  0  0  0  0  0  0  0  0  0
   -1.9670   12.9610   -5.2340 Cl  0  0  0  0  0  0  0  0  0  0  0  0
    0.8660   12.3170   -5.4010 C   0  0  0  0  0  0  0  0  0  0  0  0
    1.0980   10.9430   -7.5750 C   0  0  0  0  0  0  0  0  0  0  0  0
   -3.2000   10.6360   -5.6790 C   0  0  0  0  0  0  0  0  0  0  0  0
    0.8800   12.0060   -3.8930 C   0  0  0  0  0  0  0  0  0  0  0  0
    0.0930   10.9100   -8.7450 C   0  0  0  0  0  0  0  0  0  0  0  0
    1.4250   13.0040   -3.1610 O   0  0  0  0  0  0  0  0  0  0  0  0
    0.4920   11.0180   -3.2970 O   0  0  0  0  0  0  0  0  0  0  0  0
    0.1760    9.7100   -9.7230 C   0  0  0  0  0  0  0  0  0  0  0  0
    1.5260    9.1460   -9.9580 N   0  0  0  0  0  0  0  0  0  0  0  0
    1.9080    7.9990   -9.1540 C   0  0  0  0  0  0  0  0  0  0  0  0
    2.2110    9.4560  -11.0900 C   0  0  0  0  0  0  0  0  0  0  0  0
    0.9420    6.8390   -9.3770 C   0  0  0  0  0  0  0  0  0  0  0  0
    1.9920   10.5900  -11.8320 N   0  0  0  0  0  0  0  0  0  0  0  0
    3.1800    8.7410  -11.6320 N   0  0  0  0  0  0  0  0  0  0  0  0
    3.6040    9.4350  -12.7340 C   0  0  0  0  0  0  0  0  0  0  0  0
    2.8730   10.6060  -12.8850 C   0  0  0  0  0  0  0  0  0  0  0  0
    1.3700    5.6590   -8.5630 C   0  0  0  0  0  0  0  0  0  0  0  0
    2.3040    4.7590   -9.0880 C   0  0  0  0  0  0  0  0  0  0  0  0
    0.8480    5.4520   -7.2900 C   0  0  0  0  0  0  0  0  0  0  0  0
    3.0890   11.5170  -13.9180 C   0  0  0  0  0  0  0  0  0  0  0  0
    4.6170    9.1310  -13.6550 C   0  0  0  0  0  0  0  0  0  0  0  0
    2.7130    3.6670   -8.3420 C   0  0  0  0  0  0  0  0  0  0  0  0
    1.2610    4.3590   -6.5510 C   0  0  0  0  0  0  0  0  0  0  0  0
    4.1050   11.2020  -14.8270 C   0  0  0  0  0  0  0  0  0  0  0  0
    4.8570   10.0310  -14.7010 C   0  0  0  0  0  0  0  0  0  0  0  0
    2.1980    3.4680   -7.0820 C   0  0  0  0  0  0  0  0  0  0  0  0
  1  2  1  0
  2  3  2  0
  2  4  1  0
  3  5  1  0
  3  6  1  0
  4  7  2  0
  6  8  1  0
  5  9  1  0
  5 10  1  0
  6 11  2  0
  7 11  1  0
  9 12  1  0
 10 13  1  0
 12 14  1  0
 12 15  2  0
 13 16  1  0
 16 17  1  0
 17 18  1  0
 17 19  1  0
 18 20  1  0
 19 21  1  0
 19 22  2  0
 22 23  1  0
 21 24  1  0
 23 24  2  0
 20 25  1  0
 25 26  2  0
 25 27  1  0
 24 28  1  0
 23 29  1  0
 26 30  1  0
 27 31  2  0
 28 32  2  0
 29 33  2  0
 32 33  1  0
 30 34  2  0
 31 34  1  0
M  END
