mac-x0178-mac-x0398
     RDKit          3D

 24 25  0  0  0  0  0  0  0  0999 V2000
   -0.2650   18.1970   -6.3650 N   0  0  0  0  0  0  0  0  0  0  0  0
   -1.5940   17.5590   -5.5780 S   0  0  0  0  0  0  0  0  0  0  0  0
   -2.5260   17.1430   -6.6100 O   0  0  0  0  0  0  0  0  0  0  0  0
   -1.9370   18.5690   -4.6130 O   0  0  0  0  0  0  0  0  0  0  0  0
   -0.9040   16.1490   -4.7430 C   0  0  0  0  0  0  0  0  0  0  0  0
    0.4120   15.7490   -4.9880 C   0  0  0  0  0  0  0  0  0  0  0  0
   -1.6650   15.4270   -3.8280 C   0  0  0  0  0  0  0  0  0  0  0  0
   -2.9630   15.8230   -3.5280 O   0  0  0  0  0  0  0  0  0  0  0  0
    0.9380   14.6320   -4.3260 C   0  0  0  0  0  0  0  0  0  0  0  0
   -1.1580   14.3080   -3.1730 C   0  0  0  0  0  0  0  0  0  0  0  0
   -3.7820   14.8090   -3.1410 C   0  0  0  0  0  0  0  0  0  0  0  0
    0.1460   13.9100   -3.4240 C   0  0  0  0  0  0  0  0  0  0  0  0
    0.6560   12.7240   -2.7100 C   0  0  0  0  0  0  0  0  0  0  0  0
   -4.0710   13.8850   -3.8700 O   0  0  0  0  0  0  0  0  0  0  0  0
   -4.3640   14.8960   -1.7630 C   0  0  0  0  0  0  0  0  0  0  0  0
    1.4770   12.8070   -1.8260 O   0  0  0  0  0  0  0  0  0  0  0  0
    0.1150   11.5670   -3.1350 O   0  0  0  0  0  0  0  0  0  0  0  0
   -5.7350   15.0070   -1.5840 C   0  0  0  0  0  0  0  0  0  0  0  0
   -3.5360   14.8460   -0.6170 C   0  0  0  0  0  0  0  0  0  0  0  0
   -6.5790   15.0640   -2.6560 O   0  0  0  0  0  0  0  0  0  0  0  0
   -6.2920   15.0530   -0.3110 C   0  0  0  0  0  0  0  0  0  0  0  0
   -4.1040   14.8960    0.6690 C   0  0  0  0  0  0  0  0  0  0  0  0
   -5.4930   14.9930    0.8220 C   0  0  0  0  0  0  0  0  0  0  0  0
   -6.1030   15.0320    2.0730 N   0  0  0  0  0  0  0  0  0  0  0  0
  2  1  1  0
  2  3  2  0
  2  4  2  0
  2  5  1  0
  5  6  2  0
  5  7  1  0
  7  8  1  0
  6  9  1  0
  7 10  2  0
  8 11  1  0
  9 12  2  0
 10 12  1  0
 12 13  1  0
 11 14  2  0
 11 15  1  0
 13 16  2  0
 13 17  1  0
 15 18  2  0
 15 19  1  0
 18 20  1  0
 18 21  1  0
 19 22  2  0
 21 23  2  0
 22 23  1  0
 23 24  1  0
M  END
