mac-x0338-diamond-x0592_0_A
     RDKit          3D

 12 13  0  0  0  0  0  0  0  0999 V2000
   -4.2230   15.4270    2.3130 N   0  0  0  0  0  0  0  0  0  0  0  0
   -5.2120   15.0480    1.4580 C   0  0  0  0  0  0  0  0  0  0  0  0
   -6.3800   14.7760    1.9540 N   0  0  0  0  0  0  0  0  0  0  0  0
   -4.8860   14.9840    0.0250 C   0  0  0  0  0  0  0  0  0  0  0  0
   -7.4790   14.3550    1.0790 C   0  0  0  0  0  0  0  0  0  0  0  0
   -3.5720   15.0010   -0.3070 N   0  0  0  0  0  0  0  0  0  0  0  0
   -5.9380   14.9130   -0.8750 C   0  0  0  0  0  0  0  0  0  0  0  0
   -7.3700   14.8920   -0.3570 C   0  0  0  0  0  0  0  0  0  0  0  0
   -3.3640   14.9480   -1.6210 C   0  0  0  0  0  0  0  0  0  0  0  0
   -5.6880   14.8600   -2.2140 N   0  0  0  0  0  0  0  0  0  0  0  0
   -4.3750   14.8820   -2.5680 C   0  0  0  0  0  0  0  0  0  0  0  0
   -2.0620   14.9620   -1.9600 O   0  0  0  0  0  0  0  0  0  0  0  0
  1  2  1  0
  2  3  2  0
  2  4  1  0
  3  5  1  0
  4  6  2  0
  4  7  1  0
  5  8  1  0
  7  8  1  0
  6  9  1  0
  7 10  2  0
  9 11  2  0
 10 11  1  0
  9 12  1  0
M  END
