mac-x0385-diamond-x0967_0_A
     RDKit          3D

 19 21  0  0  0  0  0  0  0  0999 V2000
   -4.6800   15.8760   -0.9980 C   0  0  0  0  0  0  0  0  0  0  0  0
   -3.2930   15.6810   -0.4630 C   0  0  0  0  0  0  0  0  0  0  0  0
   -2.2250   15.9060   -1.2700 C   0  0  0  0  0  0  0  0  0  0  0  0
   -3.0180   15.2630    0.8420 C   0  0  0  0  0  0  0  0  0  0  0  0
   -4.1750   15.0370    1.5170 N   0  0  0  0  0  0  0  0  0  0  0  0
   -1.8120   15.0880    1.3150 N   0  0  0  0  0  0  0  0  0  0  0  0
   -0.9880   15.7410   -0.8550 N   0  0  0  0  0  0  0  0  0  0  0  0
   -0.8670   15.3420    0.4120 C   0  0  0  0  0  0  0  0  0  0  0  0
   -5.0050   14.4950    0.5600 C   0  0  0  0  0  0  0  0  0  0  0  0
    0.4600   15.1430    0.8610 C   0  0  0  0  0  0  0  0  0  0  0  0
   -6.3750   14.3820    0.6920 C   0  0  0  0  0  0  0  0  0  0  0  0
   -4.3860   14.0590   -0.6220 C   0  0  0  0  0  0  0  0  0  0  0  0
   -7.0830   13.8510   -0.3990 C   0  0  0  0  0  0  0  0  0  0  0  0
   -7.0860   14.7690    1.8370 C   0  0  0  0  0  0  0  0  0  0  0  0
   -5.1590   13.5480   -1.6230 C   0  0  0  0  0  0  0  0  0  0  0  0
   -8.3980   13.7270   -0.3550 N   0  0  0  0  0  0  0  0  0  0  0  0
   -8.4540   14.6330    1.8730 C   0  0  0  0  0  0  0  0  0  0  0  0
   -6.4860   13.4470   -1.5250 N   0  0  0  0  0  0  0  0  0  0  0  0
   -9.0580   14.1120    0.7530 C   0  0  0  0  0  0  0  0  0  0  0  0
  1  2  1  0
  2  3  2  0
  2  4  1  0
  4  5  1  0
  4  6  2  0
  3  7  1  0
  6  8  1  0
  7  8  2  0
  5  9  1  0
  8 10  1  0
  9 11  1  0
  9 12  2  0
 11 13  2  0
 11 14  1  0
 12 15  1  0
 13 16  1  0
 14 17  2  0
 13 18  1  0
 15 18  2  0
 16 19  2  0
 17 19  1  0
M  END
