mac-x0182-diamond-x0855_0_A
     RDKit          3D

 15 16  0  0  0  0  0  0  0  0999 V2000
    1.6300   11.2150   -7.3730 O   0  0  0  0  0  0  0  0  0  0  0  0
    0.6010   11.3920   -6.7140 C   0  0  0  0  0  0  0  0  0  0  0  0
    0.3200   12.0590   -5.4950 N   0  0  0  0  0  0  0  0  0  0  0  0
   -0.7170   10.8620   -7.1850 C   0  0  2  0  0  0  0  0  0  0  0  0
   -1.0940   11.5240   -4.7840 S   0  0  0  0  0  0  0  0  0  0  0  0
   -1.2910   10.3970   -5.9530 C   0  0  2  0  0  0  0  0  0  0  0  0
   -0.6230    9.7530   -8.1280 C   0  0  0  0  0  0  0  0  0  0  0  0
   -2.1890   11.2430   -4.0670 O   0  0  0  0  0  0  0  0  0  0  0  0
   -0.1050   11.1510   -3.3720 N   0  0  0  0  0  0  0  0  0  0  0  0
   -0.6120    8.5550   -5.7920 Br  0  0  0  0  0  0  0  0  0  0  0  0
   -2.6510    9.8850   -6.2510 C   0  0  0  0  0  0  0  0  0  0  0  0
   -1.6250    8.9180   -8.2150 C   0  0  0  0  0  0  0  0  0  0  0  0
    0.6200   12.1680   -3.0720 C   0  0  0  0  0  0  0  0  0  0  0  0
   -2.7980    9.1610   -7.3450 C   0  0  0  0  0  0  0  0  0  0  0  0
    1.5130   12.2750   -2.0320 O   0  0  0  0  0  0  0  0  0  0  0  0
  1  2  2  0
  2  3  1  0
  2  4  1  0
  3  5  1  0
  4  6  1  0
  5  6  1  0
  4  7  1  6
  5  8  2  0
  5  9  1  0
  6 10  1  1
  6 11  1  0
  7 12  2  0
  9 13  2  3
 11 14  2  0
 12 14  1  0
 13 15  1  0
M  END
