mac-x0381-mac-x0397
     RDKit          3D

 23 26  0  0  0  0  0  0  0  0999 V2000
   -8.0610   14.1490    5.1330 N   0  0  0  0  0  0  0  0  0  0  0  0
   -7.9140   14.5520    3.8360 C   0  0  0  0  0  0  0  0  0  0  0  0
   -6.6420   14.4480    3.4400 N   0  0  0  0  0  0  0  0  0  0  0  0
   -9.2340   14.9710    3.2210 C   0  0  0  0  0  0  0  0  0  0  0  0
   -9.3420   15.7980    2.1120 C   0  0  0  0  0  0  0  0  0  0  0  0
  -10.4060   14.4880    3.8210 C   0  0  0  0  0  0  0  0  0  0  0  0
   -5.9610   14.6590    2.2450 C   0  0  0  0  0  0  0  0  0  0  0  0
  -10.5870   16.1590    1.5780 C   0  0  0  0  0  0  0  0  0  0  0  0
  -11.6590   14.8290    3.2970 C   0  0  0  0  0  0  0  0  0  0  0  0
   -6.4040   14.8020    1.0030 N   0  0  0  0  0  0  0  0  0  0  0  0
   -4.2310   14.7310    2.3550 S   0  0  0  0  0  0  0  0  0  0  0  0
  -11.7640   15.6620    2.1670 C   0  0  0  0  0  0  0  0  0  0  0  0
  -10.6770   17.0070    0.4610 C   0  0  0  0  0  0  0  0  0  0  0  0
   -5.3510   14.9710    0.0890 C   0  0  0  0  0  0  0  0  0  0  0  0
   -4.0800   14.9540    0.6600 C   0  0  0  0  0  0  0  0  0  0  0  0
  -13.0040   16.0140    1.6070 C   0  0  0  0  0  0  0  0  0  0  0  0
  -11.9170   17.3560   -0.0730 C   0  0  0  0  0  0  0  0  0  0  0  0
   -5.4070   15.1540   -1.3190 C   0  0  0  0  0  0  0  0  0  0  0  0
   -2.9210   15.1020   -0.1020 C   0  0  0  0  0  0  0  0  0  0  0  0
   -6.9570   15.1800   -2.0280 Cl  0  0  0  0  0  0  0  0  0  0  0  0
  -13.0820   16.8560    0.4970 C   0  0  0  0  0  0  0  0  0  0  0  0
   -4.2720   15.3030   -2.0940 C   0  0  0  0  0  0  0  0  0  0  0  0
   -3.0420   15.2750   -1.4840 C   0  0  0  0  0  0  0  0  0  0  0  0
  1  2  1  0
  2  3  2  3
  2  4  1  0
  4  5  2  0
  4  6  1  0
  3  7  1  0
  5  8  1  0
  6  9  2  0
  7 10  2  0
  7 11  1  0
  8 12  2  0
  9 12  1  0
  8 13  1  0
 10 14  1  0
 11 15  1  0
 14 15  2  0
 12 16  1  0
 13 17  2  0
 14 18  1  0
 15 19  1  0
 18 20  1  0
 16 21  2  0
 17 21  1  0
 18 22  2  0
 19 23  2  0
 22 23  1  0
M  END
