mac-x0437-diamond-x0722_0_A
     RDKit          3D

 28 30  0  0  0  0  0  0  0  0999 V2000
    1.7160   12.7350   -2.1090 O   0  0  0  0  0  0  0  0  0  0  0  0
    0.9420   12.2440   -3.1740 C   0  0  0  0  0  0  0  0  0  0  0  0
    0.9980   10.8470   -3.1010 O   0  0  0  0  0  0  0  0  0  0  0  0
    1.4260   12.8150   -4.5160 C   0  0  0  0  0  0  0  0  0  0  0  0
   -0.5120   12.6090   -2.9240 C   0  0  0  0  0  0  0  0  0  0  0  0
    0.3230   13.1650   -5.5130 C   0  0  0  0  0  0  0  0  0  0  0  0
   -0.7310   13.2730   -1.5850 C   0  0  0  0  0  0  0  0  0  0  0  0
   -1.8160   14.3190   -1.6800 C   0  0  0  0  0  0  0  0  0  0  0  0
   -0.5270   12.0050   -5.7260 N   0  0  0  0  0  0  0  0  0  0  0  0
   -1.7060   11.7290   -5.0810 C   0  0  0  0  0  0  0  0  0  0  0  0
   -0.2840   10.9920   -6.6120 C   0  0  0  0  0  0  0  0  0  0  0  0
   -2.3450   14.6960   -0.3560 C   0  0  0  0  0  0  0  0  0  0  0  0
   -2.2310   10.5960   -5.4960 N   0  0  0  0  0  0  0  0  0  0  0  0
   -1.3580   10.1270   -6.4450 C   0  0  0  0  0  0  0  0  0  0  0  0
    0.7480   10.7570   -7.5190 C   0  0  0  0  0  0  0  0  0  0  0  0
   -3.5830   15.2080    0.0080 C   0  0  0  0  0  0  0  0  0  0  0  0
   -1.6160   14.5900    0.8110 N   0  0  0  0  0  0  0  0  0  0  0  0
   -0.2670   14.1320    1.0450 C   0  0  0  0  0  0  0  0  0  0  0  0
   -4.7800   15.5390   -0.8370 C   0  0  0  0  0  0  0  0  0  0  0  0
   -1.4210    8.9560   -7.2140 C   0  0  0  0  0  0  0  0  0  0  0  0
    0.6690    9.5860   -8.2800 C   0  0  0  0  0  0  0  0  0  0  0  0
   -2.2840   14.9820    1.8600 N   0  0  0  0  0  0  0  0  0  0  0  0
   -3.4520   15.3660    1.3990 C   0  0  0  0  0  0  0  0  0  0  0  0
   -4.4030   15.8970    2.3520 C   0  0  0  0  0  0  0  0  0  0  0  0
   -6.0240   14.7090   -0.5470 C   0  0  0  0  0  0  0  0  0  0  0  0
   -0.3950    8.6990   -8.1310 C   0  0  0  0  0  0  0  0  0  0  0  0
   -7.1770   15.0720   -0.7600 O   0  0  0  0  0  0  0  0  0  0  0  0
   -5.7960   13.4700   -0.0070 N   0  0  0  0  0  0  0  0  0  0  0  0
  2  1  1  0
  2  3  1  0
  2  4  1  0
  2  5  1  0
  4  6  1  0
  5  7  1  0
  7  8  1  0
  6  9  1  0
  9 10  1  0
  9 11  1  0
  8 12  1  0
 10 13  2  0
 11 14  2  0
 13 14  1  0
 11 15  1  0
 12 16  2  0
 12 17  1  0
 17 18  1  0
 16 19  1  0
 14 20  1  0
 15 21  2  0
 17 22  1  0
 16 23  1  0
 22 23  2  0
 23 24  1  0
 19 25  1  0
 20 26  2  0
 21 26  1  0
 25 27  2  0
 25 28  1  0
M  END
