mac-x0345-diamond-x0282_0_A
     RDKit          3D

 15 16  0  0  0  0  0  0  0  0999 V2000
   -6.9340   14.5130    0.7450 C   0  0  0  0  0  0  0  0  0  0  0  0
   -8.2930   14.5810    0.3290 O   0  0  0  0  0  0  0  0  0  0  0  0
   -5.9200   15.1020   -0.2930 C   0  0  1  0  0  0  0  0  0  0  0  0
   -4.4760   15.4790    0.2080 C   0  0  1  0  0  0  0  0  0  0  0  0
   -6.0120   14.2220   -1.4640 N   0  0  0  0  0  0  0  0  0  0  0  0
   -4.4190   15.5340    2.1220 Br  0  0  0  0  0  0  0  0  0  0  0  0
   -3.1520   14.8340   -0.3600 C   0  0  1  0  0  0  0  0  0  0  0  0
   -4.8230   14.0800   -2.2480 C   0  0  1  0  0  0  0  0  0  0  0  0
   -4.7340   15.2940   -2.9880 N   0  0  0  0  0  0  0  0  0  0  0  0
   -3.5630   13.7660   -1.4290 C   0  0  0  0  0  0  0  0  0  0  0  0
   -2.2010   15.7010   -1.1220 N   0  0  0  0  0  0  0  0  0  0  0  0
   -2.4410   14.1260    0.7650 N   0  0  0  0  0  0  0  0  0  0  0  0
   -0.7850   15.2540   -1.1250 C   0  0  0  0  0  0  0  0  0  0  0  0
   -1.0900   14.2780    1.0690 C   0  0  0  0  0  0  0  0  0  0  0  0
   -0.2590   14.8160    0.1900 C   0  0  0  0  0  0  0  0  0  0  0  0
  1  2  1  0
  3  1  1  1
  3  4  1  0
  3  5  1  0
  4  6  1  1
  4  7  1  0
  5  8  1  0
  8  9  1  1
  7 10  1  6
  8 10  1  0
  7 11  1  0
  7 12  1  0
 11 13  1  0
 12 14  1  0
 13 15  1  0
 14 15  2  0
M  END
