mac-x0306-mac-x0328
     RDKit          3D

 15 16  0  0  0  0  0  0  0  0999 V2000
   -2.0520   14.7410   -3.8080 O   0  0  0  0  0  0  0  0  0  0  0  0
   -1.9310   14.6990   -2.4620 C   0  0  0  0  0  0  0  0  0  0  0  0
   -0.8190   14.5430   -1.9810 O   0  0  0  0  0  0  0  0  0  0  0  0
   -3.1100   14.8470   -1.7420 N   0  0  0  0  0  0  0  0  0  0  0  0
   -4.3520   15.1170   -2.4830 C   0  0  0  0  0  0  0  0  0  0  0  0
   -3.1110   15.0210   -0.3750 C   0  0  0  0  0  0  0  0  0  0  0  0
   -5.6830   14.8520   -1.7260 C   0  0  2  0  0  0  0  0  0  0  0  0
   -4.1940   14.7830    0.3410 C   0  0  0  0  0  0  0  0  0  0  0  0
   -6.5410   16.0110   -1.6250 O   0  0  0  0  0  0  0  0  0  0  0  0
   -5.4650   14.2970   -0.2970 C   0  0  1  0  0  0  0  0  0  0  0  0
   -6.7070   14.4910    0.5260 C   0  0  0  0  0  0  0  0  0  0  0  0
   -6.7250   14.4900    1.9040 N   0  0  0  0  0  0  0  0  0  0  0  0
   -7.9210   14.6780    0.0510 N   0  0  0  0  0  0  0  0  0  0  0  0
   -8.7360   14.7990    1.1420 C   0  0  0  0  0  0  0  0  0  0  0  0
   -8.0150   14.6870    2.3020 C   0  0  0  0  0  0  0  0  0  0  0  0
  1  2  1  0
  2  3  2  0
  2  4  1  0
  4  5  1  0
  4  6  1  0
  5  7  1  0
  6  8  2  0
  7  9  1  1
  7 10  1  0
  8 10  1  0
 10 11  1  1
 11 12  1  0
 11 13  2  0
 13 14  1  0
 12 15  1  0
 14 15  2  0
M  END
