mac-x0510-mac-x0344
     RDKit          3D

 25 27  0  0  0  0  0  0  0  0999 V2000
   -6.2040   14.9350    0.8200 O   0  0  0  0  0  0  0  0  0  0  0  0
   -5.0270   15.0280    0.4860 C   0  0  0  0  0  0  0  0  0  0  0  0
   -4.6860   15.2010   -0.8330 N   0  0  0  0  0  0  0  0  0  0  0  0
   -4.0140   14.9570    1.4040 N   0  0  0  0  0  0  0  0  0  0  0  0
   -2.7320   14.8330    0.9730 C   0  0  0  0  0  0  0  0  0  0  0  0
   -3.4140   15.1450   -1.3530 C   0  0  0  0  0  0  0  0  0  0  0  0
   -3.1910   15.2940   -2.5460 O   0  0  0  0  0  0  0  0  0  0  0  0
   -2.4260   14.9140   -0.3490 C   0  0  0  0  0  0  0  0  0  0  0  0
   -1.6450   14.6220    1.7500 N   0  0  0  0  0  0  0  0  0  0  0  0
   -1.0740   14.7380   -0.3980 N   0  0  0  0  0  0  0  0  0  0  0  0
   -0.6460   14.5710    0.8950 C   0  0  0  0  0  0  0  0  0  0  0  0
   -0.2330   14.7280   -1.5690 C   0  0  0  0  0  0  0  0  0  0  0  0
    0.4480   13.3820   -1.7890 C   0  0  0  0  0  0  0  0  0  0  0  0
    1.4910   13.5450   -2.8040 N   0  0  0  0  0  0  0  0  0  0  0  0
    1.4630   12.8130   -3.8610 C   0  0  0  0  0  0  0  0  0  0  0  0
    2.3560   12.9190   -4.8500 O   0  0  0  0  0  0  0  0  0  0  0  0
    0.4170   11.7280   -4.1360 C   0  0  0  0  0  0  0  0  0  0  0  0
    0.0560   11.0430   -3.1840 O   0  0  0  0  0  0  0  0  0  0  0  0
    0.0470   11.6810   -5.4570 N   0  0  0  0  0  0  0  0  0  0  0  0
   -0.7370   10.6970   -6.0820 C   0  0  0  0  0  0  0  0  0  0  0  0
   -0.3830   10.0710   -7.2800 C   0  0  0  0  0  0  0  0  0  0  0  0
   -1.9350   10.3370   -5.4550 C   0  0  0  0  0  0  0  0  0  0  0  0
   -1.2180    9.0990   -7.8400 C   0  0  0  0  0  0  0  0  0  0  0  0
   -2.7680    9.3660   -6.0150 C   0  0  0  0  0  0  0  0  0  0  0  0
   -2.4100    8.7460   -7.2070 C   0  0  0  0  0  0  0  0  0  0  0  0
  1  2  2  0
  2  3  1  0
  2  4  1  0
  4  5  1  0
  3  6  1  0
  6  7  2  0
  5  8  2  0
  6  8  1  0
  5  9  1  0
  8 10  1  0
  9 11  2  0
 10 11  1  0
 10 12  1  0
 12 13  1  0
 13 14  1  0
 14 15  2  3
 15 16  1  0
 15 17  1  0
 17 18  2  0
 17 19  1  0
 19 20  1  0
 20 21  2  0
 20 22  1  0
 21 23  1  0
 22 24  2  0
 23 25  2  0
 24 25  1  0
M  END
