mac-x0301-mac-x0546
     RDKit          3D

 28 31  0  0  0  0  0  0  0  0999 V2000
    0.0460   14.4500   -2.9380 O   0  0  0  0  0  0  0  0  0  0  0  0
   -1.1910   13.9280   -2.9130 C   0  0  0  0  0  0  0  0  0  0  0  0
   -1.6610   13.0340   -3.7230 N   0  0  0  0  0  0  0  0  0  0  0  0
   -1.9560   14.4900   -1.7910 C   0  0  0  0  0  0  0  0  0  0  0  0
   -0.8830   12.4220   -4.7980 C   0  0  0  0  0  0  0  0  0  0  0  0
   -1.4200   14.4410   -0.5140 C   0  0  0  0  0  0  0  0  0  0  0  0
   -3.2240   15.0750   -1.9500 C   0  0  0  0  0  0  0  0  0  0  0  0
    0.5790   12.6750   -4.4540 C   0  0  2  0  0  0  0  0  0  0  0  0
   -2.1030   14.9390    0.5790 C   0  0  0  0  0  0  0  0  0  0  0  0
   -3.9180   15.5830   -0.8320 C   0  0  0  0  0  0  0  0  0  0  0  0
   -0.2150   13.9250   -0.1410 O   0  0  0  0  0  0  0  0  0  0  0  0
    0.8270   12.0140   -3.1090 C   0  0  0  0  0  0  0  0  0  0  0  0
   -3.3560   15.5150    0.4490 C   0  0  0  0  0  0  0  0  0  0  0  0
   -1.3990   14.7900    1.7410 O   0  0  0  0  0  0  0  0  0  0  0  0
   -0.1220   14.4020    1.2090 C   0  0  0  0  0  0  0  0  0  0  0  0
    0.8420   14.1380   -4.4480 C   0  0  0  0  0  0  0  0  0  0  0  0
    1.3780   12.5680   -2.1720 O   0  0  0  0  0  0  0  0  0  0  0  0
    0.4030   10.7490   -2.9520 O   0  0  0  0  0  0  0  0  0  0  0  0
   -0.0300   15.0200   -5.2420 C   0  0  1  0  0  0  0  0  0  0  0  0
    1.7550   14.8940   -3.8410 C   0  0  0  0  0  0  0  0  0  0  0  0
   -1.5170   15.0710   -5.1700 C   0  0  0  0  0  0  0  0  0  0  0  0
    0.5610   16.3310   -4.8260 C   0  0  0  0  0  0  0  0  0  0  0  0
    1.5860   16.2370   -4.0630 N   0  0  0  0  0  0  0  0  0  0  0  0
   -2.1470   16.2410   -5.3270 C   0  0  0  0  0  0  0  0  0  0  0  0
   -0.0640   17.5730   -5.3090 C   0  0  0  0  0  0  0  0  0  0  0  0
   -3.4890   16.4140   -5.3260 O   0  0  0  0  0  0  0  0  0  0  0  0
   -1.3910   17.4770   -5.5360 C   0  0  0  0  0  0  0  0  0  0  0  0
   -4.2720   15.3530   -5.8700 C   0  0  0  0  0  0  0  0  0  0  0  0
  1  2  1  0
  2  3  2  3
  2  4  1  0
  3  5  1  0
  4  6  1  0
  4  7  2  0
  8  5  1  1
  6  9  2  0
  7 10  1  0
  6 11  1  0
  8 12  1  0
  9 13  1  0
 10 13  2  0
  9 14  1  0
 11 15  1  0
 14 15  1  0
  8 16  1  0
 12 17  2  0
 12 18  1  0
 16 19  1  0
 16 20  2  0
 19 21  1  1
 19 22  1  0
 20 23  1  0
 22 23  2  0
 21 24  2  0
 22 25  1  0
 24 26  1  0
 24 27  1  0
 25 27  2  0
 26 28  1  0
M  END
