mac-x0284-mac-x0415
     RDKit          3D

 23 25  0  0  0  0  0  0  0  0999 V2000
   -4.0500   15.6770    0.8720 C   0  0  0  0  0  0  0  0  0  0  0  0
   -3.5440   15.2600   -0.4760 C   0  0  0  0  0  0  0  0  0  0  0  0
   -4.3970   15.2390   -1.5800 C   0  0  0  0  0  0  0  0  0  0  0  0
   -2.1980   14.8890   -0.6320 C   0  0  0  0  0  0  0  0  0  0  0  0
   -1.6980   14.5050   -1.8760 C   0  0  0  0  0  0  0  0  0  0  0  0
   -3.9170   14.8480   -2.8230 C   0  0  0  0  0  0  0  0  0  0  0  0
   -0.2580   14.1380   -2.0230 C   0  0  0  0  0  0  0  0  0  0  0  0
   -2.5800   14.4830   -2.9660 C   0  0  0  0  0  0  0  0  0  0  0  0
   -2.2060   14.1090   -4.2210 O   0  0  0  0  0  0  0  0  0  0  0  0
    0.4750   14.4460   -1.0820 O   0  0  0  0  0  0  0  0  0  0  0  0
    0.2750   13.4840   -3.1470 N   0  0  0  0  0  0  0  0  0  0  0  0
    0.9100   12.2260   -2.8070 C   0  0  0  0  0  0  0  0  0  0  0  0
    0.9550   14.2430   -4.2030 C   0  0  2  0  0  0  0  0  0  0  0  0
   -0.0710   11.2250   -2.6470 O   0  0  0  0  0  0  0  0  0  0  0  0
    1.9300   15.3190   -3.7750 C   0  0  0  0  0  0  0  0  0  0  0  0
    0.0880   14.9350   -5.2490 C   0  0  2  0  0  0  0  0  0  0  0  0
    1.2220   16.5960   -4.0040 N   0  0  0  0  0  0  0  0  0  0  0  0
    0.5670   16.4020   -5.2840 C   0  0  2  0  0  0  0  0  0  0  0  0
   -1.4110   14.6990   -5.1680 C   0  0  0  0  0  0  0  0  0  0  0  0
   -0.4800   17.4440   -5.5360 C   0  0  0  0  0  0  0  0  0  0  0  0
   -2.3520   15.9000   -5.0420 C   0  0  2  0  0  0  0  0  0  0  0  0
   -3.9200   15.4280   -6.1110 Br  0  0  0  0  0  0  0  0  0  0  0  0
   -1.7940   17.2210   -5.4370 C   0  0  0  0  0  0  0  0  0  0  0  0
  1  2  1  0
  2  3  2  0
  2  4  1  0
  4  5  2  0
  3  6  1  0
  5  7  1  0
  5  8  1  0
  6  8  2  0
  8  9  1  0
  7 10  2  0
  7 11  1  0
 11 12  1  0
 13 11  1  1
 12 14  1  0
 13 15  1  0
 13 16  1  0
 15 17  1  0
 16 18  1  0
 17 18  1  0
 16 19  1  1
 18 20  1  1
 19 21  1  0
 21 22  1  6
 20 23  2  0
 21 23  1  0
M  END
