mac-x0224-mac-x0180
     RDKit          3D

 15 15  0  0  0  0  0  0  0  0999 V2000
   -5.0390   15.4400    1.0610 C   0  0  0  0  0  0  0  0  0  0  0  0
   -3.4410   14.5830    1.1200 S   0  0  0  0  0  0  0  0  0  0  0  0
   -2.9710   14.7110   -0.5810 C   0  0  0  0  0  0  0  0  0  0  0  0
   -6.2600   14.7020    0.4710 C   0  0  0  0  0  0  0  0  0  0  0  0
   -7.3370   14.2800    1.4410 C   0  0  0  0  0  0  0  0  0  0  0  0
   -6.4100   14.4810   -0.7380 O   0  0  0  0  0  0  0  0  0  0  0  0
   -1.6420   14.4870   -0.8720 C   0  0  0  0  0  0  0  0  0  0  0  0
   -3.8780   15.0110   -1.5990 C   0  0  0  0  0  0  0  0  0  0  0  0
   -1.1910   14.5390   -2.1790 C   0  0  0  0  0  0  0  0  0  0  0  0
   -3.4290   15.0700   -2.9210 C   0  0  0  0  0  0  0  0  0  0  0  0
    0.2310   14.2740   -2.4330 C   0  0  0  0  0  0  0  0  0  0  0  0
   -2.0850   14.8300   -3.2130 C   0  0  0  0  0  0  0  0  0  0  0  0
   -1.7110   14.8920   -4.5240 O   0  0  0  0  0  0  0  0  0  0  0  0
    1.0460   14.2960   -1.5270 O   0  0  0  0  0  0  0  0  0  0  0  0
    0.5310   14.0030   -3.7140 O   0  0  0  0  0  0  0  0  0  0  0  0
  1  2  1  0
  2  3  1  0
  1  4  1  0
  4  5  1  0
  4  6  2  0
  3  7  2  0
  3  8  1  0
  7  9  1  0
  8 10  2  0
  9 11  1  0
  9 12  2  0
 10 12  1  0
 12 13  1  0
 11 14  2  0
 11 15  1  0
M  END
