mac-x0282-mac-x0344
     RDKit          3D

 22 24  0  0  0  0  0  0  0  0999 V2000
    1.3660   13.8040   -4.9050 O   0  0  0  0  0  0  0  0  0  0  0  0
    1.0230   13.2360   -3.7440 C   0  0  0  0  0  0  0  0  0  0  0  0
    1.2610   13.9710   -2.7030 N   0  0  0  0  0  0  0  0  0  0  0  0
    0.4240   11.8200   -3.9750 C   0  0  0  0  0  0  0  0  0  0  0  0
    0.2280   11.0500   -3.0480 O   0  0  0  0  0  0  0  0  0  0  0  0
    0.1750   11.6210   -5.3320 N   0  0  0  0  0  0  0  0  0  0  0  0
    1.0030   13.5420   -1.3270 C   0  0  0  0  0  0  0  0  0  0  0  0
   -0.2630   14.0390   -0.6360 C   0  0  0  0  0  0  0  0  0  0  0  0
   -0.6540   10.6730   -5.9720 C   0  0  0  0  0  0  0  0  0  0  0  0
   -1.3750   14.4450   -1.3620 C   0  0  0  0  0  0  0  0  0  0  0  0
   -0.3590   14.0890    0.7750 C   0  0  0  0  0  0  0  0  0  0  0  0
   -0.3310   10.0690   -7.1900 C   0  0  0  0  0  0  0  0  0  0  0  0
   -1.8640   10.3270   -5.3500 C   0  0  0  0  0  0  0  0  0  0  0  0
   -2.5110   14.8560   -0.6530 C   0  0  0  0  0  0  0  0  0  0  0  0
   -1.4250   14.4830    1.5210 N   0  0  0  0  0  0  0  0  0  0  0  0
   -1.1960    9.1380   -7.7760 C   0  0  0  0  0  0  0  0  0  0  0  0
   -2.7290    9.3960   -5.9380 C   0  0  0  0  0  0  0  0  0  0  0  0
   -3.7990   15.3160   -1.0100 C   0  0  0  0  0  0  0  0  0  0  0  0
   -2.4540   14.8430    0.7410 C   0  0  0  0  0  0  0  0  0  0  0  0
   -2.3950    8.8020   -7.1510 C   0  0  0  0  0  0  0  0  0  0  0  0
   -4.4880   15.5580    0.1520 C   0  0  0  0  0  0  0  0  0  0  0  0
   -3.6630   15.2680    1.2040 N   0  0  0  0  0  0  0  0  0  0  0  0
  1  2  1  0
  2  3  2  3
  2  4  1  0
  4  5  2  0
  4  6  1  0
  3  7  1  0
  7  8  1  0
  6  9  1  0
  8 10  2  0
  8 11  1  0
  9 12  2  0
  9 13  1  0
 10 14  1  0
 11 15  2  0
 12 16  1  0
 13 17  2  0
 14 18  1  0
 14 19  2  0
 15 19  1  0
 16 20  2  0
 17 20  1  0
 18 21  2  0
 19 22  1  0
 21 22  1  0
M  END
