mac-x0213-mac-x0131
     RDKit          3D

 30 34  0  0  0  0  0  0  0  0999 V2000
    0.8580   12.0660   -3.0940 O   0  0  0  0  0  0  0  0  0  0  0  0
    1.2870   13.3450   -2.9690 C   0  0  0  0  0  0  0  0  0  0  0  0
    1.9950   13.6220   -2.0290 O   0  0  0  0  0  0  0  0  0  0  0  0
    0.7740   14.2820   -4.0720 C   0  0  1  0  0  0  0  0  0  0  0  0
   -0.5640   14.9160   -3.7660 C   0  0  2  0  0  0  0  0  0  0  0  0
    1.5940   15.5580   -4.1780 C   0  0  0  0  0  0  0  0  0  0  0  0
   -1.6660   14.0260   -3.5360 C   0  0  2  0  0  0  0  0  0  0  0  0
   -0.6810   16.1030   -4.5960 C   0  0  0  0  0  0  0  0  0  0  0  0
    0.6010   16.5160   -4.8470 C   0  0  0  0  0  0  0  0  0  0  0  0
   -1.8000   16.7670   -5.0800 C   0  0  0  0  0  0  0  0  0  0  0  0
    0.8150   17.6480   -5.6070 C   0  0  0  0  0  0  0  0  0  0  0  0
   -2.4680   14.4290   -2.4280 N   0  0  0  0  0  0  0  0  0  0  0  0
   -1.2860   12.6110   -3.7780 C   0  0  0  0  0  0  0  0  0  0  0  0
   -1.6010   17.9040   -5.8460 C   0  0  0  0  0  0  0  0  0  0  0  0
   -0.2980   18.3420   -6.1050 C   0  0  0  0  0  0  0  0  0  0  0  0
   -3.7690   14.7690   -2.5310 C   0  0  0  0  0  0  0  0  0  0  0  0
   -2.0360   14.5560   -1.1050 C   0  0  0  0  0  0  0  0  0  0  0  0
   -0.1800   11.9820   -4.3350 C   0  0  0  0  0  0  0  0  0  0  0  0
   -2.1920   11.6950   -3.3950 O   0  0  0  0  0  0  0  0  0  0  0  0
   -4.5010   14.7430   -3.8220 C   0  0  0  0  0  0  0  0  0  0  0  0
   -4.2180   15.1170   -1.2810 C   0  0  0  0  0  0  0  0  0  0  0  0
   -3.1220   14.9790   -0.3670 C   0  0  0  0  0  0  0  0  0  0  0  0
   -0.7970   14.3220   -0.6060 N   0  0  0  0  0  0  0  0  0  0  0  0
   -1.6790   10.4900   -3.6990 C   0  0  0  0  0  0  0  0  0  0  0  0
   -0.4470   10.6040   -4.2730 C   0  0  0  0  0  0  0  0  0  0  0  0
   -5.5940   15.5550   -0.9560 C   0  0  0  0  0  0  0  0  0  0  0  0
   -2.9260   15.1680    1.0070 C   0  0  0  0  0  0  0  0  0  0  0  0
   -0.7220   14.5400    0.7200 C   0  0  0  0  0  0  0  0  0  0  0  0
   -3.9410   15.5880    1.8520 N   0  0  0  0  0  0  0  0  0  0  0  0
   -1.7060   14.9410    1.5470 N   0  0  0  0  0  0  0  0  0  0  0  0
  1  2  1  0
  2  3  2  0
  4  2  1  1
  4  5  1  0
  4  6  1  0
  5  7  1  0
  5  8  1  6
  6  9  1  0
  8  9  2  0
  8 10  1  0
  9 11  1  0
  7 12  1  0
  7 13  1  1
 10 14  2  0
 11 15  2  0
 14 15  1  0
 12 16  1  0
 12 17  1  0
 13 18  2  0
 13 19  1  0
 16 20  1  0
 16 21  2  0
 17 22  2  0
 21 22  1  0
 17 23  1  0
 19 24  1  0
 18 25  1  0
 24 25  2  0
 21 26  1  0
 22 27  1  0
 23 28  2  0
 27 29  1  0
 27 30  2  0
 28 30  1  0
M  END
