mac-x0576-mac-x0305
     RDKit          3D

 15 16  0  0  0  0  0  0  0  0999 V2000
    0.0670   14.0810    2.0890 N   0  0  0  0  0  0  0  0  0  0  0  0
   -0.9730   14.3110    1.2720 C   0  0  0  0  0  0  0  0  0  0  0  0
   -2.1190   14.5670    1.7620 N   0  0  0  0  0  0  0  0  0  0  0  0
   -0.7040   14.2490   -0.0380 N   0  0  0  0  0  0  0  0  0  0  0  0
   -1.6230   14.6060   -0.9830 C   0  0  0  0  0  0  0  0  0  0  0  0
   -3.1580   14.7830    0.8860 C   0  0  0  0  0  0  0  0  0  0  0  0
   -1.1850   14.6410   -2.2680 N   0  0  0  0  0  0  0  0  0  0  0  0
   -2.8930   14.9000   -0.6010 C   0  0  0  0  0  0  0  0  0  0  0  0
   -4.3220   14.8510    1.4130 N   0  0  0  0  0  0  0  0  0  0  0  0
   -0.0980   13.9730   -2.4440 C   0  0  0  0  0  0  0  0  0  0  0  0
   -5.3480   15.0230    0.5390 C   0  0  0  0  0  0  0  0  0  0  0  0
   -3.9140   15.2870   -1.4540 N   0  0  0  0  0  0  0  0  0  0  0  0
   -6.5280   14.9010    0.8570 O   0  0  0  0  0  0  0  0  0  0  0  0
    0.5780   13.2860   -1.4920 O   0  0  0  0  0  0  0  0  0  0  0  0
   -5.0920   15.3560   -0.9110 C   0  0  0  0  0  0  0  0  0  0  0  0
  1  2  1  0
  2  3  2  0
  2  4  1  0
  4  5  1  0
  3  6  1  0
  5  7  1  0
  5  8  2  0
  6  8  1  0
  6  9  2  0
  7 10  2  3
  9 11  1  0
  8 12  1  0
 11 13  2  0
 10 14  1  0
 11 15  1  0
 12 15  2  0
M  END
