mac-x0115-mac-x0116
     RDKit          3D

 24 26  0  0  0  0  0  0  0  0999 V2000
   -1.4170   18.5750   -5.1420 C   0  0  0  0  0  0  0  0  0  0  0  0
   -0.4280   17.6160   -5.7690 C   0  0  0  0  0  0  0  0  0  0  0  0
    1.0070   18.0690   -5.5490 C   0  0  0  0  0  0  0  0  0  0  0  0
   -0.6660   16.3310   -5.1750 O   0  0  0  0  0  0  0  0  0  0  0  0
    0.4530   15.7420   -4.5000 C   0  0  0  0  0  0  0  0  0  0  0  0
   -0.0270   14.4430   -3.8290 C   0  0  0  0  0  0  0  0  0  0  0  0
   -0.2380   14.5570   -2.3570 N   0  0  0  0  0  0  0  0  0  0  0  0
    0.7850   14.2800   -1.4710 C   0  0  0  0  0  0  0  0  0  0  0  0
   -1.3700   15.3710   -1.9120 C   0  0  2  0  0  0  0  0  0  0  0  0
    2.4030   14.0420   -1.8650 S   0  0  0  0  0  0  0  0  0  0  0  0
    0.4340   14.1980   -0.1410 N   0  0  0  0  0  0  0  0  0  0  0  0
   -1.6640   15.4720   -0.3870 C   0  0  2  0  0  0  0  0  0  0  0  0
   -2.6930   14.9160   -2.4810 C   0  0  0  0  0  0  0  0  0  0  0  0
   -0.7230   14.6550    0.4640 C   0  0  0  0  0  0  0  0  0  0  0  0
   -3.1250   15.0940   -0.2510 N   0  0  0  0  0  0  0  0  0  0  0  0
   -3.6140   14.7900   -1.5070 C   0  0  0  0  0  0  0  0  0  0  0  0
   -0.9560   14.4170    1.6630 O   0  0  0  0  0  0  0  0  0  0  0  0
   -3.6840   14.4740    0.9350 N   0  0  0  0  0  0  0  0  0  0  0  0
   -5.1550   14.6720    1.1020 C   0  0  0  0  0  0  0  0  0  0  0  0
   -5.8800   13.3670    1.3330 C   0  0  0  0  0  0  0  0  0  0  0  0
   -6.0330   12.5480    0.2480 O   0  0  0  0  0  0  0  0  0  0  0  0
   -6.4620   12.7670    2.4400 C   0  0  0  0  0  0  0  0  0  0  0  0
   -6.9860   11.5280    2.0070 C   0  0  0  0  0  0  0  0  0  0  0  0
   -6.7010   11.4430    0.6670 C   0  0  0  0  0  0  0  0  0  0  0  0
  1  2  1  0
  2  3  1  0
  2  4  1  0
  4  5  1  0
  5  6  1  0
  6  7  1  0
  7  8  1  0
  7  9  1  0
  8 10  2  0
  8 11  1  0
  9 12  1  0
  9 13  1  6
 11 14  1  0
 12 14  1  1
 12 15  1  0
 13 16  2  0
 15 16  1  0
 14 17  2  0
 15 18  1  0
 18 19  1  0
 19 20  1  0
 20 21  1  0
 20 22  2  0
 22 23  1  0
 21 24  1  0
 23 24  2  0
M  END
