mac-x0555-mac-x0303
     RDKit          3D

 14 15  0  0  0  0  0  0  0  0999 V2000
   -8.1390   14.3670    2.4880 N   0  0  2  0  0  0  0  0  0  0  0  0
   -7.7900   13.2240    3.2440 N   0  0  0  0  0  0  0  0  0  0  0  0
   -8.1720   15.4000    3.3230 O   0  0  0  0  0  0  0  0  0  0  0  0
   -9.4730   14.2340    2.0790 O   0  0  0  0  0  0  0  0  0  0  0  0
   -7.2940   14.5650    1.3010 C   0  0  0  0  0  0  0  0  0  0  0  0
   -5.8900   14.6950    1.3200 C   0  0  0  0  0  0  0  0  0  0  0  0
   -7.9080   14.6340    0.0710 C   0  0  0  0  0  0  0  0  0  0  0  0
   -5.1930   14.8840    0.1120 C   0  0  0  0  0  0  0  0  0  0  0  0
   -7.2750   14.8130   -1.0980 N   0  0  0  0  0  0  0  0  0  0  0  0
   -5.9460   14.9380   -1.0800 C   0  0  0  0  0  0  0  0  0  0  0  0
   -3.7990   15.0150    0.0600 C   0  0  0  0  0  0  0  0  0  0  0  0
   -5.2880   15.1240   -2.2770 C   0  0  0  0  0  0  0  0  0  0  0  0
   -3.1620   15.1950   -1.1650 C   0  0  0  0  0  0  0  0  0  0  0  0
   -3.9060   15.2530   -2.3360 C   0  0  0  0  0  0  0  0  0  0  0  0
  1  2  1  1
  1  3  1  0
  1  4  1  0
  1  5  1  0
  5  6  2  0
  5  7  1  0
  6  8  1  0
  7  9  2  0
  8 10  2  0
  9 10  1  0
  8 11  1  0
 10 12  1  0
 11 13  2  0
 12 14  2  0
 13 14  1  0
M  CHG  2   1   1   3  -1
M  END
