mac-x0496-mac-x0375
     RDKit          3D

 32 34  0  0  0  0  0  0  0  0999 V2000
   -9.9610   17.7990    4.7590 C   0  0  0  0  0  0  0  0  0  0  0  0
   -9.9750   16.7830    3.6850 C   0  0  0  0  0  0  0  0  0  0  0  0
  -10.9770   16.6500    2.8060 N   0  0  0  0  0  0  0  0  0  0  0  0
   -8.9550   15.8910    3.5170 N   0  0  0  0  0  0  0  0  0  0  0  0
  -10.5660   15.5920    1.9920 O   0  0  0  0  0  0  0  0  0  0  0  0
   -9.3530   15.1880    2.4830 C   0  0  0  0  0  0  0  0  0  0  0  0
   -8.6890   14.0530    1.8040 C   0  0  0  0  0  0  0  0  0  0  0  0
   -7.2630   14.3020    1.6540 N   0  0  0  0  0  0  0  0  0  0  0  0
   -6.7840   14.6520    0.4070 C   0  0  0  0  0  0  0  0  0  0  0  0
   -7.5310   14.8490   -0.5460 O   0  0  0  0  0  0  0  0  0  0  0  0
   -5.3070   14.7790    0.2380 C   0  0  0  0  0  0  0  0  0  0  0  0
   -4.5500   14.8540    1.4100 C   0  0  0  0  0  0  0  0  0  0  0  0
   -4.6630   14.8200   -1.0000 C   0  0  0  0  0  0  0  0  0  0  0  0
   -3.1680   14.9550    1.3630 C   0  0  0  0  0  0  0  0  0  0  0  0
   -3.2650   14.9270   -1.0540 C   0  0  0  0  0  0  0  0  0  0  0  0
   -2.5820   14.9750   -2.3700 C   0  0  0  0  0  0  0  0  0  0  0  0
   -2.5260   14.9890    0.1370 C   0  0  0  0  0  0  0  0  0  0  0  0
   -1.3250   14.7340   -2.4690 N   0  0  0  0  0  0  0  0  0  0  0  0
   -3.4010   15.3020   -3.3880 O   0  0  0  0  0  0  0  0  0  0  0  0
   -0.5730   14.7740   -3.7190 C   0  0  0  0  0  0  0  0  0  0  0  0
    0.9160   14.5430   -3.3950 C   0  0  0  0  0  0  0  0  0  0  0  0
    1.1770   13.2400   -2.8200 O   0  0  0  0  0  0  0  0  0  0  0  0
    0.9020   12.1720   -3.6010 C   0  0  0  0  0  0  0  0  0  0  0  0
    0.6150   11.0570   -3.1730 O   0  0  0  0  0  0  0  0  0  0  0  0
    0.9940   12.5300   -5.0840 C   0  0  0  0  0  0  0  0  0  0  0  0
    0.7720   11.5010   -6.0320 O   0  0  0  0  0  0  0  0  0  0  0  0
   -0.4160   10.8260   -6.0270 C   0  0  0  0  0  0  0  0  0  0  0  0
   -0.4110    9.6480   -6.7820 C   0  0  0  0  0  0  0  0  0  0  0  0
   -1.5820   11.1980   -5.3580 C   0  0  0  0  0  0  0  0  0  0  0  0
   -1.5510    8.8490   -6.8700 C   0  0  0  0  0  0  0  0  0  0  0  0
   -2.7270   10.3960   -5.4460 C   0  0  0  0  0  0  0  0  0  0  0  0
   -2.7110    9.2240   -6.2000 C   0  0  0  0  0  0  0  0  0  0  0  0
  1  2  1  0
  2  3  2  0
  2  4  1  0
  3  5  1  0
  4  6  2  0
  5  6  1  0
  6  7  1  0
  7  8  1  0
  8  9  1  0
  9 10  2  0
  9 11  1  0
 11 12  2  0
 11 13  1  0
 12 14  1  0
 13 15  2  0
 15 16  1  0
 14 17  2  0
 15 17  1  0
 16 18  2  3
 16 19  1  0
 18 20  1  0
 20 21  1  0
 21 22  1  0
 22 23  1  0
 23 24  2  0
 23 25  1  0
 25 26  1  0
 26 27  1  0
 27 28  2  0
 27 29  1  0
 28 30  1  0
 29 31  2  0
 30 32  2  0
 31 32  1  0
M  END
