mac-x0358-diamond-x0849_0_A
     RDKit          3D

 23 25  0  0  0  0  0  0  0  0999 V2000
    1.7730   12.8660   -2.2580 O   0  0  0  0  0  0  0  0  0  0  0  0
    1.0540   12.2520   -3.2100 C   0  0  0  0  0  0  0  0  0  0  0  0
    0.5840   11.1440   -3.0060 O   0  0  0  0  0  0  0  0  0  0  0  0
    0.9100   13.0800   -4.4650 C   0  0  0  0  0  0  0  0  0  0  0  0
   -0.5340   13.3540   -4.7720 C   0  0  0  0  0  0  0  0  0  0  0  0
   -1.3000   12.5290   -5.5940 C   0  0  0  0  0  0  0  0  0  0  0  0
   -1.1630   14.4690   -4.1970 C   0  0  0  0  0  0  0  0  0  0  0  0
   -0.7720   11.4190   -6.1750 O   0  0  0  0  0  0  0  0  0  0  0  0
   -2.6370   12.7910   -5.8600 C   0  0  0  0  0  0  0  0  0  0  0  0
   -2.5210   14.7270   -4.4390 C   0  0  0  0  0  0  0  0  0  0  0  0
   -3.2130   15.8800   -3.7860 C   0  0  0  0  0  0  0  0  0  0  0  0
   -3.2480   13.8910   -5.2800 C   0  0  0  0  0  0  0  0  0  0  0  0
   -2.6150   16.1320   -2.5110 O   0  0  0  0  0  0  0  0  0  0  0  0
   -3.0940   15.7410   -1.2500 C   0  0  0  0  0  0  0  0  0  0  0  0
   -2.0680   15.3410   -0.3810 C   0  0  0  0  0  0  0  0  0  0  0  0
   -4.4010   15.7180   -0.7760 C   0  0  0  0  0  0  0  0  0  0  0  0
   -2.3770   14.9380    0.9310 C   0  0  0  0  0  0  0  0  0  0  0  0
   -4.5990   15.3050    0.5360 C   0  0  0  0  0  0  0  0  0  0  0  0
   -0.7280   15.3270   -0.7760 C   0  0  0  0  0  0  0  0  0  0  0  0
   -3.6170   14.9280    1.3670 N   0  0  0  0  0  0  0  0  0  0  0  0
   -1.4400   14.5540    1.7790 N   0  0  0  0  0  0  0  0  0  0  0  0
    0.2430   14.9240    0.1090 C   0  0  0  0  0  0  0  0  0  0  0  0
   -0.1710   14.5460    1.3710 C   0  0  0  0  0  0  0  0  0  0  0  0
  1  2  1  0
  2  3  2  0
  2  4  1  0
  4  5  1  0
  5  6  2  0
  5  7  1  0
  6  8  1  0
  6  9  1  0
  7 10  2  0
 10 11  1  0
  9 12  2  0
 10 12  1  0
 11 13  1  0
 13 14  1  0
 14 15  1  0
 14 16  2  0
 15 17  2  0
 16 18  1  0
 15 19  1  0
 17 20  1  0
 18 20  2  0
 17 21  1  0
 19 22  2  0
 21 23  2  0
 22 23  1  0
M  END
