mac-x0182-mac-x0417
     RDKit          3D

 14 15  0  0  0  0  0  0  0  0999 V2000
    1.8240   11.7700   -6.9610 O   0  0  0  0  0  0  0  0  0  0  0  0
    0.6300   11.5960   -6.5480 C   0  0  0  0  0  0  0  0  0  0  0  0
   -0.1100   12.4790   -5.7560 N   0  0  0  0  0  0  0  0  0  0  0  0
   -0.2170   10.4310   -6.7690 C   0  0  0  0  0  0  0  0  0  0  0  0
   -0.9310   11.6940   -4.7180 S   0  0  0  0  0  0  0  0  0  0  0  0
   -1.1530   10.3630   -5.7620 C   0  0  0  0  0  0  0  0  0  0  0  0
   -0.1320    9.5240   -7.7950 C   0  0  0  0  0  0  0  0  0  0  0  0
   -1.4320   12.7750   -3.9890 O   0  0  0  0  0  0  0  0  0  0  0  0
   -0.4130   11.1000   -3.4260 N   0  0  0  0  0  0  0  0  0  0  0  0
   -2.0190    9.2580   -5.8730 C   0  0  0  0  0  0  0  0  0  0  0  0
   -1.0070    8.4840   -7.8410 C   0  0  0  0  0  0  0  0  0  0  0  0
    0.2610   11.8830   -2.7000 C   0  0  0  0  0  0  0  0  0  0  0  0
   -1.9510    8.3620   -6.8640 C   0  0  0  0  0  0  0  0  0  0  0  0
    0.8040   11.5890   -1.4810 O   0  0  0  0  0  0  0  0  0  0  0  0
  1  2  2  0
  2  3  1  0
  2  4  1  0
  3  5  1  0
  4  6  2  0
  5  6  1  0
  4  7  1  0
  5  8  2  0
  5  9  1  0
  6 10  1  0
  7 11  2  0
  9 12  2  3
 10 13  2  0
 11 13  1  0
 12 14  1  0
M  END
