mac-x0123-mac-x0263
     RDKit          3D

 18 20  0  0  0  0  0  0  0  0999 V2000
   -3.7210   15.1100    1.9280 N   0  0  0  0  0  0  0  0  0  0  0  0
   -4.5440   14.2710    1.0480 C   0  0  1  0  0  0  0  0  0  0  0  0
   -5.8580   13.7720    1.6620 C   0  0  2  0  0  0  0  0  0  0  0  0
   -4.7960   14.9020   -0.2550 N   0  0  0  0  0  0  0  0  0  0  0  0
   -6.0420   14.5120   -0.9060 C   0  0  1  0  0  0  0  0  0  0  0  0
   -7.0860   14.5370    1.2240 C   0  0  1  0  0  0  0  0  0  0  0  0
   -6.2170   13.9210    3.1150 C   0  0  0  0  0  0  0  0  0  0  0  0
   -3.7230   14.5870   -1.2520 N   0  0  0  0  0  0  0  0  0  0  0  0
   -7.2380   14.9830   -0.1270 N   0  0  0  0  0  0  0  0  0  0  0  0
   -8.1570   13.6850    1.8790 C   0  0  0  0  0  0  0  0  0  0  0  0
   -7.5600   13.8550    3.2360 C   0  0  0  0  0  0  0  0  0  0  0  0
   -5.8360   15.0380   -2.2500 N   0  0  0  0  0  0  0  0  0  0  0  0
   -4.3940   14.8520   -2.5230 C   0  0  0  0  0  0  0  0  0  0  0  0
   -8.6850   14.6750   -0.3800 C   0  0  0  0  0  0  0  0  0  0  0  0
   -9.6250   15.7030    0.3870 C   0  0  0  0  0  0  0  0  0  0  0  0
  -10.3750   15.2890    1.6780 C   0  0  0  0  0  0  0  0  0  0  0  0
  -10.9470   14.0630    1.6370 O   0  0  0  0  0  0  0  0  0  0  0  0
  -10.5090   15.9920    2.6830 O   0  0  0  0  0  0  0  0  0  0  0  0
  2  1  1  1
  2  3  1  0
  2  4  1  0
  4  5  1  0
  3  6  1  0
  3  7  1  1
  4  8  1  0
  5  9  1  0
  6  9  1  0
  6 10  1  6
  7 11  2  0
 10 11  1  0
  5 12  1  6
  8 13  1  0
 12 13  1  0
  9 14  1  0
 14 15  1  0
 15 16  1  0
 16 17  1  0
 16 18  2  0
M  END
