mac-x0564-diamond-x0910_0_A
     RDKit          3D

 20 23  0  0  0  0  0  0  0  0999 V2000
    0.3220   13.8800   -1.3930 O   0  0  0  0  0  0  0  0  0  0  0  0
   -0.3930   14.1080   -2.3680 C   0  0  0  0  0  0  0  0  0  0  0  0
    0.0670   14.1220   -3.6590 N   0  0  0  0  0  0  0  0  0  0  0  0
   -1.8370   14.3760   -2.2420 C   0  0  0  0  0  0  0  0  0  0  0  0
   -2.6160   14.5370   -3.4370 C   0  0  0  0  0  0  0  0  0  0  0  0
   -0.7340   14.3060   -4.6640 C   0  0  0  0  0  0  0  0  0  0  0  0
   -2.6750   14.5040   -1.2120 C   0  0  0  0  0  0  0  0  0  0  0  0
   -2.4820   14.4180    0.0390 N   0  0  0  0  0  0  0  0  0  0  0  0
   -2.1050   14.5080   -4.6200 N   0  0  0  0  0  0  0  0  0  0  0  0
   -3.9730   14.7510   -1.6190 C   0  0  0  0  0  0  0  0  0  0  0  0
   -4.0000   14.7400   -2.9830 C   0  0  0  0  0  0  0  0  0  0  0  0
   -5.1750   14.9040   -3.6480 C   0  0  0  0  0  0  0  0  0  0  0  0
   -5.0820   14.9610   -0.8380 C   0  0  0  0  0  0  0  0  0  0  0  0
   -1.3660   14.6490    0.4990 C   0  0  0  0  0  0  0  0  0  0  0  0
   -6.3310   15.1130   -2.8690 C   0  0  0  0  0  0  0  0  0  0  0  0
   -6.2850   15.1510   -1.4720 C   0  0  0  0  0  0  0  0  0  0  0  0
   -1.0680   14.1130    1.6610 N   0  0  0  0  0  0  0  0  0  0  0  0
   -0.4210   15.3450    0.0070 N   0  0  0  0  0  0  0  0  0  0  0  0
    0.1420   14.4610    1.9900 N   0  0  0  0  0  0  0  0  0  0  0  0
    0.4760   15.2230    0.9470 C   0  0  0  0  0  0  0  0  0  0  0  0
  1  2  2  0
  2  3  1  0
  2  4  1  0
  4  5  1  0
  3  6  2  0
  4  7  2  0
  7  8  1  0
  5  9  2  0
  6  9  1  0
  7 10  1  0
  5 11  1  0
 10 11  2  0
 11 12  1  0
 10 13  1  0
  8 14  1  0
 12 15  2  0
 13 16  2  0
 15 16  1  0
 14 17  1  0
 14 18  2  0
 17 19  1  0
 18 20  1  0
 19 20  2  0
M  END
