mac-x0584-mac-x0333
     RDKit          3D

 23 27  0  0  0  0  0  0  0  0999 V2000
   -3.9270   16.0300   -2.0000 O   0  0  0  0  0  0  0  0  0  0  0  0
   -3.7870   14.8450   -1.2380 C   0  0  1  0  0  0  0  0  0  0  0  0
   -2.4330   14.8010   -0.6650 C   0  0  0  0  0  0  0  0  0  0  0  0
   -4.6900   14.7430    0.0310 C   0  0  1  0  0  0  0  0  0  0  0  0
   -2.5030   14.8140    0.7240 C   0  0  0  0  0  0  0  0  0  0  0  0
   -1.2180   14.7590   -1.2830 C   0  0  0  0  0  0  0  0  0  0  0  0
   -3.8350   14.8910    1.2230 N   0  0  0  0  0  0  0  0  0  0  0  0
   -5.7150   15.7150    0.0850 O   0  0  0  0  0  0  0  0  0  0  0  0
   -5.4940   13.4680    0.0030 C   0  0  0  0  0  0  0  0  0  0  0  0
   -1.0600   14.7640   -2.6570 N   0  0  0  0  0  0  0  0  0  0  0  0
   -0.1210   14.7190   -0.5030 N   0  0  0  0  0  0  0  0  0  0  0  0
   -1.4450   14.7690    1.5170 N   0  0  0  0  0  0  0  0  0  0  0  0
   -6.6470   13.7950   -0.7840 O   0  0  0  0  0  0  0  0  0  0  0  0
   -6.9330   15.0820   -0.3100 C   0  0  0  0  0  0  0  0  0  0  0  0
    0.1400   14.9310   -3.4780 C   0  0  1  0  0  0  0  0  0  0  0  0
   -2.2730   14.9110   -3.4820 C   0  0  0  0  0  0  0  0  0  0  0  0
   -0.2940   14.7280    0.8410 C   0  0  0  0  0  0  0  0  0  0  0  0
    0.5460   13.6310   -4.1330 C   0  0  0  0  0  0  0  0  0  0  0  0
   -0.3710   15.8500   -4.6040 C   0  0  0  0  0  0  0  0  0  0  0  0
   -1.7780   15.3360   -4.8620 C   0  0  0  0  0  0  0  0  0  0  0  0
    1.5840   12.6330   -3.5400 C   0  0  0  0  0  0  0  0  0  0  0  0
   -0.4900   12.5220   -3.9580 C   0  0  0  0  0  0  0  0  0  0  0  0
    0.6270   11.5160   -4.0260 C   0  0  0  0  0  0  0  0  0  0  0  0
  2  1  1  1
  2  3  1  0
  2  4  1  0
  3  5  2  0
  3  6  1  0
  4  7  1  0
  5  7  1  0
  4  8  1  0
  4  9  1  1
  6 10  1  0
  6 11  2  0
  5 12  1  0
  9 13  1  0
  8 14  1  0
 13 14  1  0
 10 15  1  0
 10 16  1  0
 11 17  1  0
 12 17  2  0
 15 18  1  6
 15 19  1  0
 16 20  1  0
 19 20  1  0
 18 21  1  0
 18 22  1  0
 21 23  1  0
 22 23  1  0
M  END
