mac-x0139-mac-x0255
     RDKit          3D

 26 29  0  0  0  0  0  0  0  0999 V2000
   -2.3700   14.4060   -3.1090 C   0  0  0  0  0  0  0  0  0  0  0  0
   -1.1120   14.4970   -2.3540 N   0  0  0  0  0  0  0  0  0  0  0  0
   -0.0880   13.4610   -2.7250 C   0  0  0  0  0  0  0  0  0  0  0  0
   -1.2840   14.6780   -0.9850 C   0  0  0  0  0  0  0  0  0  0  0  0
   -2.5110   14.9160   -0.4760 C   0  0  0  0  0  0  0  0  0  0  0  0
   -0.1600   14.5980   -0.1730 N   0  0  0  0  0  0  0  0  0  0  0  0
    0.3420   13.3890   -4.1950 C   0  0  1  0  0  0  0  0  0  0  0  0
   -2.6260   15.0810    0.9760 C   0  0  0  0  0  0  0  0  0  0  0  0
   -0.3300   14.7370    1.0960 C   0  0  0  0  0  0  0  0  0  0  0  0
   -3.8510   15.0800   -0.9390 C   0  0  0  0  0  0  0  0  0  0  0  0
    0.0240   14.7030   -4.6760 C   0  0  0  0  0  0  0  0  0  0  0  0
    1.7700   12.9780   -4.2830 C   0  0  0  0  0  0  0  0  0  0  0  0
   -1.5110   14.9650    1.7100 N   0  0  0  0  0  0  0  0  0  0  0  0
   -3.8430   15.3300    1.3430 N   0  0  0  0  0  0  0  0  0  0  0  0
   -4.5650   15.3210    0.1630 C   0  0  0  0  0  0  0  0  0  0  0  0
    0.7900   15.8130   -4.8570 C   0  0  0  0  0  0  0  0  0  0  0  0
   -1.6000   14.8910   -5.0520 S   0  0  0  0  0  0  0  0  0  0  0  0
    1.8400   12.3040   -2.9720 C   0  0  0  0  0  0  0  0  0  0  0  0
   -0.0050   16.8880   -5.3200 C   0  0  0  0  0  0  0  0  0  0  0  0
   -1.3390   16.5000   -5.4580 C   0  0  0  0  0  0  0  0  0  0  0  0
    2.5400   12.6880   -2.0690 O   0  0  0  0  0  0  0  0  0  0  0  0
    1.0050   11.2420   -2.8680 O   0  0  0  0  0  0  0  0  0  0  0  0
    0.3270   18.2070   -5.6400 C   0  0  0  0  0  0  0  0  0  0  0  0
   -2.3360   17.3480   -5.8900 C   0  0  0  0  0  0  0  0  0  0  0  0
   -0.6860   19.0680   -6.0820 C   0  0  0  0  0  0  0  0  0  0  0  0
   -1.9930   18.6430   -6.2010 C   0  0  0  0  0  0  0  0  0  0  0  0
  1  2  1  0
  2  3  1  0
  2  4  1  0
  4  5  2  0
  4  6  1  0
  7  3  1  1
  5  8  1  0
  6  9  2  0
  5 10  1  0
  7 11  1  0
  7 12  1  0
  8 13  1  0
  9 13  1  0
  8 14  2  0
 10 15  2  0
 14 15  1  0
 11 16  2  0
 11 17  1  0
 12 18  1  0
 16 19  1  0
 17 20  1  0
 19 20  2  0
 18 21  2  0
 18 22  1  0
 19 23  1  0
 20 24  1  0
 23 25  2  0
 24 26  2  0
 25 26  1  0
M  END
