mac-x0161-mac-x0411
     RDKit          3D

 31 34  0  0  0  0  0  0  0  0999 V2000
   -5.1520   15.1270    1.4220 N   0  0  0  0  0  0  0  0  0  0  0  0
   -4.2430   14.6350    0.4100 C   0  0  2  0  0  0  0  0  0  0  0  0
   -2.7720   14.9470    0.7050 C   0  0  2  0  0  0  0  0  0  0  0  0
   -4.6830   15.2700   -0.8230 N   0  0  0  0  0  0  0  0  0  0  0  0
   -3.8510   14.9640   -1.9860 C   0  0  0  0  0  0  0  0  0  0  0  0
   -2.0470   14.3640   -0.4870 C   0  0  1  0  0  0  0  0  0  0  0  0
   -2.0320   14.3150    1.7860 N   0  0  0  0  0  0  0  0  0  0  0  0
   -2.4030   15.0100   -1.7280 N   0  0  0  0  0  0  0  0  0  0  0  0
   -0.6680   14.6340   -0.1250 N   0  0  0  0  0  0  0  0  0  0  0  0
   -0.6510   14.2270    1.2770 C   0  0  0  0  0  0  0  0  0  0  0  0
   -1.6020   14.4160   -2.7990 C   0  0  0  0  0  0  0  0  0  0  0  0
   -1.8030   12.9460   -2.8610 C   0  0  0  0  0  0  0  0  0  0  0  0
   -2.7300   12.1530   -3.4950 C   0  0  0  0  0  0  0  0  0  0  0  0
   -0.9240   12.1560   -2.1670 O   0  0  0  0  0  0  0  0  0  0  0  0
   -1.2750   10.8270   -2.3540 N   0  0  0  0  0  0  0  0  0  0  0  0
   -2.3490   10.8560   -3.1420 C   0  0  0  0  0  0  0  0  0  0  0  0
   -2.9760    9.7340   -3.5400 O   0  0  0  0  0  0  0  0  0  0  0  0
   -3.2720    9.6850   -4.9370 C   0  0  0  0  0  0  0  0  0  0  0  0
   -2.0410    9.2950   -5.7300 C   0  0  0  0  0  0  0  0  0  0  0  0
   -1.0960   10.2320   -6.1980 C   0  0  0  0  0  0  0  0  0  0  0  0
   -1.8440    7.9310   -6.0050 C   0  0  0  0  0  0  0  0  0  0  0  0
   -1.3400   11.9200   -5.8720 Cl  0  0  0  0  0  0  0  0  0  0  0  0
    0.0360    9.7930   -6.9320 C   0  0  0  0  0  0  0  0  0  0  0  0
   -0.7430    7.4990   -6.7320 C   0  0  0  0  0  0  0  0  0  0  0  0
    0.9940   10.6750   -7.4040 O   0  0  0  0  0  0  0  0  0  0  0  0
    0.1900    8.4170   -7.1970 C   0  0  0  0  0  0  0  0  0  0  0  0
    1.5190    7.7960   -8.1080 Cl  0  0  0  0  0  0  0  0  0  0  0  0
    1.2500   11.8250   -6.5750 C   0  0  0  0  0  0  0  0  0  0  0  0
    1.5720   11.5080   -5.1250 C   0  0  0  0  0  0  0  0  0  0  0  0
    2.1930   12.5590   -4.5280 O   0  0  0  0  0  0  0  0  0  0  0  0
    1.3520   10.4910   -4.4920 O   0  0  0  0  0  0  0  0  0  0  0  0
  2  1  1  1
  2  3  1  0
  2  4  1  0
  4  5  1  0
  3  6  1  0
  3  7  1  1
  5  8  1  0
  6  8  1  0
  6  9  1  1
  7 10  1  0
  9 10  1  0
  8 11  1  0
 11 12  1  0
 12 13  2  0
 12 14  1  0
 14 15  1  0
 13 16  1  0
 15 16  2  0
 16 17  1  0
 17 18  1  0
 18 19  1  0
 19 20  2  0
 19 21  1  0
 20 22  1  0
 20 23  1  0
 21 24  2  0
 23 25  1  0
 23 26  2  0
 24 26  1  0
 26 27  1  0
 25 28  1  0
 28 29  1  0
 29 30  1  0
 29 31  2  0
M  END
