mac-x0398-diamond-x0104_0_A
     RDKit          3D

 19 20  0  0  0  0  0  0  0  0999 V2000
   -6.5510   14.6500    2.3830 N   0  0  0  0  0  0  0  0  0  0  0  0
   -7.8320   15.0500    2.8290 C   0  0  0  0  0  0  0  0  0  0  0  0
   -7.8450   14.9090    4.2220 N   0  0  0  0  0  0  0  0  0  0  0  0
   -5.7880   14.7860    1.1650 C   0  0  0  0  0  0  0  0  0  0  0  0
   -8.7710   15.4400    2.1440 O   0  0  0  0  0  0  0  0  0  0  0  0
   -6.4450   14.9070   -0.0820 C   0  0  0  0  0  0  0  0  0  0  0  0
   -4.3810   14.7980    1.1600 C   0  0  0  0  0  0  0  0  0  0  0  0
   -5.7050   15.0290   -1.2750 C   0  0  0  0  0  0  0  0  0  0  0  0
   -3.6470   14.9170   -0.0330 C   0  0  0  0  0  0  0  0  0  0  0  0
   -8.9420   15.0080    5.0780 C   0  0  0  0  0  0  0  0  0  0  0  0
   -6.3610   15.1430   -2.4700 O   0  0  0  0  0  0  0  0  0  0  0  0
   -4.3100   15.0290   -1.2620 C   0  0  0  0  0  0  0  0  0  0  0  0
   -9.0490   15.1800    6.4440 C   0  0  0  0  0  0  0  0  0  0  0  0
  -10.4760   14.8950    4.3360 S   0  0  0  0  0  0  0  0  0  0  0  0
   -3.4970   15.1360   -2.4990 C   0  0  0  0  0  0  0  0  0  0  0  0
  -11.2960   15.0730    5.8340 C   0  0  0  0  0  0  0  0  0  0  0  0
  -10.4140   15.2170    6.8820 C   0  0  0  0  0  0  0  0  0  0  0  0
   -3.9500   15.2440   -3.6250 O   0  0  0  0  0  0  0  0  0  0  0  0
   -2.1740   15.0620   -2.2880 O   0  0  0  0  0  0  0  0  0  0  0  0
  1  2  1  0
  2  3  1  0
  1  4  1  0
  2  5  2  0
  4  6  2  0
  4  7  1  0
  6  8  1  0
  7  9  2  0
  3 10  1  0
  8 11  1  0
  8 12  2  0
  9 12  1  0
 10 13  2  0
 10 14  1  0
 12 15  1  0
 14 16  1  0
 13 17  1  0
 16 17  2  0
 15 18  2  0
 15 19  1  0
M  END
