mac-x0546-mac-x0387
     RDKit          3D

 27 30  0  0  0  0  0  0  0  0999 V2000
   -4.3570   15.3810   -6.0850 C   0  0  0  0  0  0  0  0  0  0  0  0
   -3.5310   16.5480   -6.1430 O   0  0  0  0  0  0  0  0  0  0  0  0
   -2.3290   16.3190   -5.5320 C   0  0  0  0  0  0  0  0  0  0  0  0
   -1.8890   15.0670   -5.3400 C   0  0  0  0  0  0  0  0  0  0  0  0
   -1.5580   17.4860   -5.1110 C   0  0  0  0  0  0  0  0  0  0  0  0
   -0.6010   14.8530   -4.6570 C   0  0  2  0  0  0  0  0  0  0  0  0
   -0.2630   17.4060   -4.7480 C   0  0  0  0  0  0  0  0  0  0  0  0
    0.3100   16.0510   -4.8110 C   0  0  0  0  0  0  0  0  0  0  0  0
    0.4320   13.7950   -4.9580 C   0  0  0  0  0  0  0  0  0  0  0  0
    0.2400   12.3090   -5.0400 C   0  0  0  0  0  0  0  0  0  0  0  0
    1.5500   15.7680   -4.9720 N   0  0  0  0  0  0  0  0  0  0  0  0
    1.5900   14.3950   -5.0430 C   0  0  0  0  0  0  0  0  0  0  0  0
    0.2320   12.1090   -3.5920 C   0  0  0  0  0  0  0  0  0  0  0  0
    0.4890   13.2390   -3.1220 N   0  0  0  0  0  0  0  0  0  0  0  0
   -0.0590   10.9390   -2.9760 O   0  0  0  0  0  0  0  0  0  0  0  0
    0.4510   13.5310   -1.7780 C   0  0  0  0  0  0  0  0  0  0  0  0
   -0.9360   14.1140   -1.6360 C   0  0  0  0  0  0  0  0  0  0  0  0
   -1.2890   14.3480   -0.3780 C   0  0  0  0  0  0  0  0  0  0  0  0
   -1.8340   14.3990   -2.6920 C   0  0  0  0  0  0  0  0  0  0  0  0
   -2.5430   14.8620   -0.0440 C   0  0  0  0  0  0  0  0  0  0  0  0
   -0.3400   14.0440    0.5610 C   0  0  0  0  0  0  0  0  0  0  0  0
   -3.1000   14.9260   -2.4140 C   0  0  0  0  0  0  0  0  0  0  0  0
   -2.7620   15.0320    1.3220 C   0  0  0  0  0  0  0  0  0  0  0  0
   -0.6340   14.2350    1.8300 C   0  0  0  0  0  0  0  0  0  0  0  0
   -3.4570   15.1570   -1.0840 C   0  0  0  0  0  0  0  0  0  0  0  0
   -3.9650   15.5350    1.8390 N   0  0  0  0  0  0  0  0  0  0  0  0
   -1.8230   14.7110    2.2230 N   0  0  0  0  0  0  0  0  0  0  0  0
  1  2  1  0
  2  3  1  0
  3  4  2  0
  3  5  1  0
  6  4  1  6
  5  7  2  0
  6  8  1  0
  7  8  1  0
  6  9  1  0
  9 10  1  0
  8 11  2  0
  9 12  2  0
 11 12  1  0
 10 13  1  0
 13 14  2  3
 13 15  1  0
 14 16  1  0
 16 17  1  0
 17 18  1  0
 17 19  2  0
 18 20  2  0
 18 21  1  0
 19 22  1  0
 20 23  1  0
 21 24  2  0
 20 25  1  0
 22 25  2  0
 23 26  1  0
 23 27  2  0
 24 27  1  0
M  END
