mac-x0404-mac-x0193
     RDKit          3D

 25 27  0  0  0  0  0  0  0  0999 V2000
    1.0920   12.7710   -2.1000 O   0  0  0  0  0  0  0  0  0  0  0  0
    0.7700   11.9560   -3.1320 C   0  0  0  0  0  0  0  0  0  0  0  0
    0.2360   10.8800   -2.9080 O   0  0  0  0  0  0  0  0  0  0  0  0
    1.1560   12.5200   -4.5150 C   0  0  2  0  0  0  0  0  0  0  0  0
    1.0450   13.9490   -4.4860 O   0  0  0  0  0  0  0  0  0  0  0  0
    0.2880   11.9260   -5.5540 N   0  0  0  0  0  0  0  0  0  0  0  0
    0.9140   11.5360   -6.7080 C   0  0  0  0  0  0  0  0  0  0  0  0
   -0.1910   14.4880   -4.7420 C   0  0  0  0  0  0  0  0  0  0  0  0
    2.0610   11.8370   -6.8690 O   0  0  0  0  0  0  0  0  0  0  0  0
    0.1580   10.7830   -7.6090 N   0  0  0  0  0  0  0  0  0  0  0  0
   -0.2610   15.8640   -5.0270 C   0  0  0  0  0  0  0  0  0  0  0  0
   -1.3440   13.6990   -4.7240 C   0  0  0  0  0  0  0  0  0  0  0  0
   -1.5200   16.4420   -5.3010 C   0  0  0  0  0  0  0  0  0  0  0  0
   -2.5780   14.2790   -4.9930 C   0  0  0  0  0  0  0  0  0  0  0  0
    0.8750   16.6830   -5.0530 C   0  0  0  0  0  0  0  0  0  0  0  0
    0.7650   10.2230   -8.8410 C   0  0  0  0  0  0  0  0  0  0  0  0
   -2.6670   15.6390   -5.2800 C   0  0  0  0  0  0  0  0  0  0  0  0
   -1.6010   17.8070   -5.5940 C   0  0  0  0  0  0  0  0  0  0  0  0
    0.7830   18.0410   -5.3460 C   0  0  0  0  0  0  0  0  0  0  0  0
    1.3020    8.8070   -8.6220 C   0  0  0  0  0  0  0  0  0  0  0  0
   -0.1780   10.2120  -10.0480 C   0  0  0  0  0  0  0  0  0  0  0  0
   -0.4630   18.5960   -5.6170 C   0  0  0  0  0  0  0  0  0  0  0  0
    1.9930    8.2070   -9.8550 C   0  0  0  0  0  0  0  0  0  0  0  0
    0.4990    9.6440  -11.3060 C   0  0  0  0  0  0  0  0  0  0  0  0
    1.0910    8.2520  -11.0840 C   0  0  0  0  0  0  0  0  0  0  0  0
  1  2  1  0
  2  3  2  0
  2  4  1  0
  4  5  1  0
  4  6  1  6
  6  7  1  0
  5  8  1  0
  7  9  2  0
  7 10  1  0
  8 11  1  0
  8 12  2  0
 11 13  2  0
 12 14  1  0
 11 15  1  0
 10 16  1  0
 13 17  1  0
 14 17  2  0
 13 18  1  0
 15 19  2  0
 16 20  1  0
 16 21  1  0
 18 22  2  0
 19 22  1  0
 20 23  1  0
 21 24  1  0
 23 25  1  0
 24 25  1  0
M  END
