mac-x0188-mac-x0338
     RDKit          3D

 18 19  0  0  0  0  0  0  0  0999 V2000
    1.3560   13.2550   -5.2190 C   0  0  0  0  0  0  0  0  0  0  0  0
    0.0660   13.6260   -4.6030 C   0  0  0  0  0  0  0  0  0  0  0  0
   -0.9930   13.7530   -5.4450 O   0  0  0  0  0  0  0  0  0  0  0  0
   -0.3470   13.8860   -3.3150 C   0  0  0  0  0  0  0  0  0  0  0  0
    0.4760   13.8530   -2.1240 C   0  0  0  0  0  0  0  0  0  0  0  0
   -2.1190   14.0970   -4.7280 N   0  0  0  0  0  0  0  0  0  0  0  0
   -1.7380   14.1780   -3.4410 C   0  0  0  0  0  0  0  0  0  0  0  0
    1.1300   14.8090   -1.7390 O   0  0  0  0  0  0  0  0  0  0  0  0
    0.4940   12.6520   -1.4620 O   0  0  0  0  0  0  0  0  0  0  0  0
   -2.6830   14.5100   -2.3790 C   0  0  0  0  0  0  0  0  0  0  0  0
   -3.9350   15.1140   -2.6180 C   0  0  0  0  0  0  0  0  0  0  0  0
   -2.3240   14.2020   -1.0700 C   0  0  0  0  0  0  0  0  0  0  0  0
   -4.8080   15.3850   -1.5450 C   0  0  0  0  0  0  0  0  0  0  0  0
   -3.1760   14.4660   -0.0190 C   0  0  0  0  0  0  0  0  0  0  0  0
   -4.4120   15.0410   -0.2380 C   0  0  0  0  0  0  0  0  0  0  0  0
   -5.2000   15.2160    0.9990 C   0  0  0  0  0  0  0  0  0  0  0  0
   -4.5320   15.6500    2.0970 N   0  0  0  0  0  0  0  0  0  0  0  0
   -6.3950   14.9440    1.0590 O   0  0  0  0  0  0  0  0  0  0  0  0
  1  2  1  0
  2  3  1  0
  2  4  2  0
  4  5  1  0
  3  6  1  0
  4  7  1  0
  6  7  2  0
  5  8  2  0
  5  9  1  0
  7 10  1  0
 10 11  2  0
 10 12  1  0
 11 13  1  0
 12 14  2  0
 13 15  2  0
 14 15  1  0
 15 16  1  0
 16 17  1  0
 16 18  2  0
M  END
