mac-x0453-mac-x0132
     RDKit          3D

 12 13  0  0  0  0  0  0  0  0999 V2000
   -7.1930   13.0230    3.0190 N   0  0  0  0  0  0  0  0  0  0  0  0
   -6.2370   13.1260    1.9570 C   0  0  0  0  0  0  0  0  0  0  0  0
   -6.3860   14.4740    1.4970 N   0  0  0  0  0  0  0  0  0  0  0  0
   -5.0400   14.9900    1.1060 C   0  0  0  0  0  0  0  0  0  0  0  0
   -7.4730   14.5700    0.5250 C   0  0  0  0  0  0  0  0  0  0  0  0
   -4.5720   14.6150   -0.3230 C   0  0  2  0  0  0  0  0  0  0  0  0
   -6.9870   14.5500   -0.8390 N   0  0  0  0  0  0  0  0  0  0  0  0
   -3.2060   13.9050   -0.3450 C   0  0  0  0  0  0  0  0  0  0  0  0
   -4.2580   15.7800   -1.1480 N   0  0  0  0  0  0  0  0  0  0  0  0
   -5.7190   13.8470   -0.9760 C   0  0  0  0  0  0  0  0  0  0  0  0
   -2.5910   14.3010   -1.6230 N   0  0  0  0  0  0  0  0  0  0  0  0
   -3.5590   15.1710   -2.2550 C   0  0  0  0  0  0  0  0  0  0  0  0
  1  2  1  0
  2  3  1  0
  3  4  1  0
  3  5  1  0
  6  4  1  1
  5  7  1  0
  6  8  1  0
  6  9  1  0
  6 10  1  0
  7 10  1  0
  8 11  1  0
  9 12  1  0
 11 12  1  0
M  END
