mac-x0394-diamond-x1012_0_A
     RDKit          3D

 12 12  0  0  0  0  0  0  0  0999 V2000
    0.9990   18.3220   -5.1490 Cl  0  0  0  0  0  0  0  0  0  0  0  0
    0.2730   16.7940   -4.9890 C   0  0  0  0  0  0  0  0  0  0  0  0
   -1.0960   16.6990   -5.1590 C   0  0  0  0  0  0  0  0  0  0  0  0
    1.0500   15.6740   -4.7000 C   0  0  0  0  0  0  0  0  0  0  0  0
    0.4530   14.4210   -4.5790 C   0  0  0  0  0  0  0  0  0  0  0  0
   -1.6970   15.4560   -5.0400 C   0  0  0  0  0  0  0  0  0  0  0  0
   -3.3950   15.3220   -5.2560 Cl  0  0  0  0  0  0  0  0  0  0  0  0
    1.2840   13.2020   -4.2670 C   0  0  0  0  0  0  0  0  0  0  0  0
   -0.9370   14.3200   -4.7530 C   0  0  0  0  0  0  0  0  0  0  0  0
    0.8040   12.4880   -3.0300 C   0  0  0  0  0  0  0  0  0  0  0  0
    0.2360   11.3060   -3.3330 O   0  0  0  0  0  0  0  0  0  0  0  0
    0.8770   12.8580   -1.8740 O   0  0  0  0  0  0  0  0  0  0  0  0
  1  2  1  0
  2  3  2  0
  2  4  1  0
  4  5  2  0
  3  6  1  0
  6  7  1  0
  5  8  1  0
  5  9  1  0
  6  9  2  0
  8 10  1  0
 10 11  1  0
 10 12  2  0
M  END
