mac-x0441-mac-x0347
     RDKit          3D

 31 34  0  0  0  0  0  0  0  0999 V2000
    0.5730   10.7060   -3.3250 O   0  0  0  0  0  0  0  0  0  0  0  0
    0.5920   12.0460   -3.4010 C   0  0  0  0  0  0  0  0  0  0  0  0
    0.6290   12.7450   -2.3260 N   0  0  0  0  0  0  0  0  0  0  0  0
    0.5570   12.6520   -4.7900 C   0  0  0  0  0  0  0  0  0  0  0  0
    0.5920   14.1890   -2.4290 C   0  0  1  0  0  0  0  0  0  0  0  0
    0.2600   11.7220   -5.8790 N   0  0  0  0  0  0  0  0  0  0  0  0
    1.3710   14.6650   -3.5120 O   0  0  0  0  0  0  0  0  0  0  0  0
    1.0310   11.7390   -6.9990 N   0  0  0  0  0  0  0  0  0  0  0  0
   -0.7350   10.7910   -5.9490 C   0  0  0  0  0  0  0  0  0  0  0  0
   -0.8520   14.5860   -2.6360 C   0  0  0  0  0  0  0  0  0  0  0  0
    0.4990   10.7820   -7.8030 C   0  0  0  0  0  0  0  0  0  0  0  0
   -0.6010   10.1750   -7.1700 C   0  0  0  0  0  0  0  0  0  0  0  0
   -1.7790   10.4700   -4.9420 C   0  0  0  0  0  0  0  0  0  0  0  0
   -1.7570   14.5220   -1.5680 C   0  0  0  0  0  0  0  0  0  0  0  0
   -1.3520   15.0130   -3.8640 C   0  0  0  0  0  0  0  0  0  0  0  0
    0.9600   10.3760   -9.1840 C   0  0  0  0  0  0  0  0  0  0  0  0
   -1.4900    9.0870   -7.6580 C   0  0  0  0  0  0  0  0  0  0  0  0
   -2.9220    9.7050   -5.6370 C   0  0  0  0  0  0  0  0  0  0  0  0
   -3.1000   14.8700   -1.7360 C   0  0  0  0  0  0  0  0  0  0  0  0
   -2.6440   15.3600   -4.0800 N   0  0  0  0  0  0  0  0  0  0  0  0
    1.6600    9.2120   -9.2060 F   0  0  0  0  0  0  0  0  0  0  0  0
   -0.1070   10.1680   -9.9940 F   0  0  0  0  0  0  0  0  0  0  0  0
    1.6760   11.2950   -9.8590 F   0  0  0  0  0  0  0  0  0  0  0  0
   -2.3920    8.5650   -6.5260 C   0  0  0  0  0  0  0  0  0  0  0  0
   -3.4770   15.2770   -3.0120 C   0  0  0  0  0  0  0  0  0  0  0  0
   -4.0510   14.8100   -0.6240 C   0  0  0  0  0  0  0  0  0  0  0  0
   -3.7530   15.4110    0.6090 C   0  0  0  0  0  0  0  0  0  0  0  0
   -5.2810   14.1510   -0.7610 C   0  0  0  0  0  0  0  0  0  0  0  0
   -4.6540   15.3550    1.6590 C   0  0  0  0  0  0  0  0  0  0  0  0
   -6.1890   14.0910    0.2950 C   0  0  0  0  0  0  0  0  0  0  0  0
   -5.8710   14.6950    1.5060 C   0  0  0  0  0  0  0  0  0  0  0  0
  1  2  1  0
  2  3  2  3
  2  4  1  0
  3  5  1  0
  4  6  1  0
  5  7  1  6
  6  8  1  0
  6  9  1  0
  5 10  1  0
  8 11  2  0
  9 12  2  0
 11 12  1  0
  9 13  1  0
 10 14  2  0
 10 15  1  0
 11 16  1  0
 12 17  1  0
 13 18  1  0
 14 19  1  0
 15 20  2  0
 16 21  1  0
 16 22  1  0
 16 23  1  0
 17 24  1  0
 18 24  1  0
 19 25  2  0
 20 25  1  0
 19 26  1  0
 26 27  2  0
 26 28  1  0
 27 29  1  0
 28 30  2  0
 29 31  2  0
 30 31  1  0
M  END
