mac-x0131-mac-x0346
     RDKit          3D

 28 31  0  0  0  0  0  0  0  0999 V2000
   -2.9460   14.9470   -4.6520 C   0  0  0  0  0  0  0  0  0  0  0  0
   -2.5790   14.8000   -3.2150 C   0  0  0  0  0  0  0  0  0  0  0  0
   -3.3920   14.7320   -2.1080 C   0  0  0  0  0  0  0  0  0  0  0  0
   -1.2750   14.7040   -2.7710 N   0  0  0  0  0  0  0  0  0  0  0  0
   -4.8870   14.8050   -2.1240 C   0  0  0  0  0  0  0  0  0  0  0  0
   -0.0950   14.7070   -3.6100 C   0  0  0  0  0  0  0  0  0  0  0  0
   -2.5240   14.5900   -0.9150 C   0  0  0  0  0  0  0  0  0  0  0  0
   -1.2300   14.5940   -1.3950 C   0  0  0  0  0  0  0  0  0  0  0  0
   -2.6290   14.4590    0.5240 C   0  0  0  0  0  0  0  0  0  0  0  0
   -0.1020   14.5060   -0.6610 N   0  0  0  0  0  0  0  0  0  0  0  0
    0.1750   13.2790   -3.9240 C   0  0  0  0  0  0  0  0  0  0  0  0
   -4.9440   15.0720   -0.6970 C   0  0  0  0  0  0  0  0  0  0  0  0
   -3.7980   14.4020    1.2500 N   0  0  0  0  0  0  0  0  0  0  0  0
   -1.5200   14.3810    1.2890 N   0  0  0  0  0  0  0  0  0  0  0  0
   -0.3470   14.4120    0.6600 C   0  0  0  0  0  0  0  0  0  0  0  0
    1.3040   12.5410   -4.2170 C   0  0  0  0  0  0  0  0  0  0  0  0
   -0.9260   12.4650   -3.9320 O   0  0  0  0  0  0  0  0  0  0  0  0
   -5.9500   14.7660    0.1870 C   0  0  0  0  0  0  0  0  0  0  0  0
   -3.8070   15.6910   -0.2540 C   0  0  0  0  0  0  0  0  0  0  0  0
   -7.1900   14.1210   -0.2860 C   0  0  0  0  0  0  0  0  0  0  0  0
   -0.5000   11.2140   -4.2270 C   0  0  0  0  0  0  0  0  0  0  0  0
    0.8610   11.2040   -4.4120 C   0  0  0  0  0  0  0  0  0  0  0  0
   -3.6060   16.0200    1.0550 C   0  0  0  0  0  0  0  0  0  0  0  0
   -5.7670   15.0790    1.5500 C   0  0  0  0  0  0  0  0  0  0  0  0
   -8.0440   13.6850    0.6910 N   0  0  0  0  0  0  0  0  0  0  0  0
   -7.4380   13.9980   -1.4830 O   0  0  0  0  0  0  0  0  0  0  0  0
   -4.5850   15.7120    1.9800 C   0  0  0  0  0  0  0  0  0  0  0  0
   -8.3030   14.6320    1.7050 O   0  0  0  0  0  0  0  0  0  0  0  0
  1  2  1  0
  2  3  2  0
  2  4  1  0
  3  5  1  0
  4  6  1  0
  3  7  1  0
  4  8  1  0
  7  8  2  0
  7  9  1  0
  8 10  1  0
  6 11  1  0
  5 12  1  0
  9 13  1  0
  9 14  2  0
 10 15  2  0
 14 15  1  0
 11 16  2  0
 11 17  1  0
 12 18  2  0
 12 19  1  0
 18 20  1  0
 17 21  1  0
 16 22  1  0
 21 22  2  0
 19 23  2  0
 18 24  1  0
 20 25  1  0
 20 26  2  0
 23 27  1  0
 24 27  2  0
 25 28  1  0
M  END
