mac-x0411-mac-x0321
     RDKit          3D

 22 23  0  0  0  0  0  0  0  0999 V2000
    0.4080    9.6050   -7.7490 Cl  0  0  0  0  0  0  0  0  0  0  0  0
   -0.8370   10.0650   -6.6320 C   0  0  0  0  0  0  0  0  0  0  0  0
   -0.6440   11.0780   -5.6610 C   0  0  0  0  0  0  0  0  0  0  0  0
   -2.0410    9.3900   -6.7250 C   0  0  0  0  0  0  0  0  0  0  0  0
    0.6020   11.6710   -5.6770 O   0  0  0  0  0  0  0  0  0  0  0  0
   -1.7060   11.4440   -4.7130 C   0  0  0  0  0  0  0  0  0  0  0  0
   -3.0700    9.7170   -5.8530 C   0  0  0  0  0  0  0  0  0  0  0  0
   -1.6250   12.4510   -3.6220 N   0  0  0  0  0  0  0  0  0  0  0  0
    0.8100   12.6710   -4.6990 C   0  0  0  0  0  0  0  0  0  0  0  0
   -2.9040   10.7150   -4.8760 C   0  0  0  0  0  0  0  0  0  0  0  0
    0.9850   11.9840   -3.3660 C   0  0  0  0  0  0  0  0  0  0  0  0
   -1.9490   13.9230   -3.5540 C   0  0  2  0  0  0  0  0  0  0  0  0
    1.7390   12.7030   -2.5170 O   0  0  0  0  0  0  0  0  0  0  0  0
    0.5330   10.8980   -3.0350 O   0  0  0  0  0  0  0  0  0  0  0  0
   -0.7700   14.4760   -2.9990 O   0  0  0  0  0  0  0  0  0  0  0  0
   -3.0980   14.4300   -2.6190 C   0  0  0  0  0  0  0  0  0  0  0  0
   -2.9390   14.5740   -1.2060 C   0  0  0  0  0  0  0  0  0  0  0  0
   -4.3580   14.7870   -3.1420 C   0  0  0  0  0  0  0  0  0  0  0  0
   -3.9960   15.0490   -0.3990 C   0  0  0  0  0  0  0  0  0  0  0  0
   -5.4000   15.2560   -2.3260 C   0  0  0  0  0  0  0  0  0  0  0  0
   -3.7900   15.2200    1.3020 Cl  0  0  0  0  0  0  0  0  0  0  0  0
   -5.2180   15.3870   -0.9560 C   0  0  0  0  0  0  0  0  0  0  0  0
  1  2  1  0
  2  3  2  0
  2  4  1  0
  3  5  1  0
  3  6  1  0
  4  7  2  0
  6  8  1  0
  5  9  1  0
  6 10  2  0
  7 10  1  0
  9 11  1  0
  8 12  1  0
 11 13  1  0
 11 14  2  0
 12 15  1  1
 12 16  1  0
 16 17  2  0
 16 18  1  0
 17 19  1  0
 18 20  2  0
 19 21  1  0
 19 22  2  0
 20 22  1  0
M  END
