mac-x0576-diamond-x0685_0_A
     RDKit          3D

 16 18  0  0  0  0  0  0  0  0999 V2000
    0.2840   15.2200    0.9230 N   0  0  0  0  0  0  0  0  0  0  0  0
   -0.6320   14.1670    0.8420 C   0  0  1  0  0  0  0  0  0  0  0  0
   -1.7740   14.6000    1.5850 N   0  0  0  0  0  0  0  0  0  0  0  0
   -0.8960   14.0220   -0.5750 N   0  0  0  0  0  0  0  0  0  0  0  0
   -1.6040   15.1760   -1.1320 C   0  0  1  0  0  0  0  0  0  0  0  0
   -2.9850   14.4730    0.7790 C   0  0  2  0  0  0  0  0  0  0  0  0
   -2.1100   15.1640   -2.5470 C   0  0  0  0  0  0  0  0  0  0  0  0
   -2.8870   15.4940   -0.3290 C   0  0  2  0  0  0  0  0  0  0  0  0
   -4.2880   14.5980    1.4010 N   0  0  0  0  0  0  0  0  0  0  0  0
   -3.4420   15.3920   -2.5560 C   0  0  0  0  0  0  0  0  0  0  0  0
   -5.4360   14.8910    0.6620 C   0  0  0  0  0  0  0  0  0  0  0  0
   -3.9590   15.5890   -1.2900 N   0  0  0  0  0  0  0  0  0  0  0  0
   -6.5830   14.7550    1.2660 N   0  0  0  0  0  0  0  0  0  0  0  0
   -5.3280   15.3510   -0.8280 C   0  0  0  0  0  0  0  0  0  0  0  0
   -6.6950   14.3280    2.6500 C   0  0  0  0  0  0  0  0  0  0  0  0
   -8.0150   13.6110    2.8760 C   0  0  0  0  0  0  0  0  0  0  0  0
  2  1  1  6
  2  3  1  0
  2  4  1  0
  4  5  1  0
  6  3  1  1
  5  7  1  6
  5  8  1  0
  6  8  1  0
  6  9  1  0
  7 10  2  0
  9 11  1  0
  8 12  1  6
 10 12  1  0
 11 13  2  3
 11 14  1  0
 12 14  1  0
 13 15  1  0
 15 16  1  0
M  END
