mac-x0397-mac-x0212
     RDKit          3D

 19 21  0  0  0  0  0  0  0  0999 V2000
   -6.2890   14.7010   -4.7650 Cl  0  0  0  0  0  0  0  0  0  0  0  0
   -5.5970   14.7250   -3.1970 C   0  0  0  0  0  0  0  0  0  0  0  0
   -6.4320   14.8660   -2.1140 C   0  0  0  0  0  0  0  0  0  0  0  0
   -4.2250   14.5780   -3.1110 C   0  0  0  0  0  0  0  0  0  0  0  0
   -5.8650   14.8070   -0.8450 C   0  0  0  0  0  0  0  0  0  0  0  0
   -3.5700   14.5190   -1.8970 C   0  0  0  0  0  0  0  0  0  0  0  0
   -7.8280   15.0520   -2.2420 C   0  0  0  0  0  0  0  0  0  0  0  0
   -2.0960   14.3380   -2.1620 C   0  0  0  0  0  0  0  0  0  0  0  0
   -6.8270   14.9300    0.2430 C   0  0  0  0  0  0  0  0  0  0  0  0
   -8.7100   15.1840   -1.2340 N   0  0  0  0  0  0  0  0  0  0  0  0
   -4.4160   14.6110   -0.7090 C   0  0  0  0  0  0  0  0  0  0  0  0
   -6.3590   14.8240    1.6110 N   0  0  0  0  0  0  0  0  0  0  0  0
   -4.1110   14.5110    0.6540 N   0  0  0  0  0  0  0  0  0  0  0  0
   -1.2060   14.0730   -1.3850 O   0  0  0  0  0  0  0  0  0  0  0  0
   -1.7960   14.5060   -3.4780 O   0  0  0  0  0  0  0  0  0  0  0  0
   -8.1780   15.1130   -0.0050 C   0  0  0  0  0  0  0  0  0  0  0  0
   -5.5490   13.7180    1.1100 S   0  0  1  0  0  0  0  0  0  0  0  0
   -5.5280   12.2400    2.0270 C   0  0  0  0  0  0  0  0  0  0  0  0
   -5.9540   13.2150   -0.1830 O   0  0  0  0  0  0  0  0  0  0  0  0
  1  2  1  0
  2  3  2  0
  2  4  1  0
  3  5  1  0
  4  6  2  0
  3  7  1  0
  6  8  1  0
  5  9  1  0
  7 10  2  0
  5 11  2  0
  6 11  1  0
  9 12  1  0
 11 13  1  0
  8 14  2  0
  8 15  1  0
  9 16  2  0
 10 16  1  0
 12 17  2  0
 13 17  1  0
 17 18  1  1
 17 19  2  0
M  END
