mac-x0255-mac-x0360
     RDKit          3D

 28 30  0  0  0  0  0  0  0  0999 V2000
    2.4640   12.2530   -2.4690 O   0  0  0  0  0  0  0  0  0  0  0  0
    1.1200   12.5390   -2.7180 C   0  0  0  0  0  0  0  0  0  0  0  0
    0.4200   11.3480   -2.4070 O   0  0  0  0  0  0  0  0  0  0  0  0
    1.0890   12.8630   -4.2180 C   0  0  0  0  0  0  0  0  0  0  0  0
    0.9210   13.6840   -1.7100 C   0  0  0  0  0  0  0  0  0  0  0  0
   -0.2530   14.6390   -1.7850 C   0  0  0  0  0  0  0  0  0  0  0  0
    0.4700   14.1660   -4.5670 C   0  0  0  0  0  0  0  0  0  0  0  0
   -1.3660   14.3800   -0.7890 C   0  0  0  0  0  0  0  0  0  0  0  0
    1.0860   15.3810   -4.7210 C   0  0  0  0  0  0  0  0  0  0  0  0
   -1.2120   14.2640   -4.8230 S   0  0  0  0  0  0  0  0  0  0  0  0
   -2.6770   14.5890   -1.4080 N   0  0  0  0  0  0  0  0  0  0  0  0
    0.1730   16.4200   -5.0620 C   0  0  0  0  0  0  0  0  0  0  0  0
   -1.1370   15.9430   -5.1490 C   0  0  0  0  0  0  0  0  0  0  0  0
   -3.8960   14.7970   -0.2690 S   0  0  0  0  0  0  0  0  0  0  0  0
    0.4040   17.7860   -5.3120 C   0  0  0  0  0  0  0  0  0  0  0  0
   -2.2140   16.7840   -5.4730 C   0  0  0  0  0  0  0  0  0  0  0  0
   -4.7440   15.8450   -0.7820 O   0  0  0  0  0  0  0  0  0  0  0  0
   -3.2470   14.9090    1.0140 O   0  0  0  0  0  0  0  0  0  0  0  0
   -0.6630   18.6190   -5.6410 C   0  0  0  0  0  0  0  0  0  0  0  0
   -1.9490   18.1290   -5.7200 C   0  0  0  0  0  0  0  0  0  0  0  0
   -4.8030   13.2750   -0.3630 C   0  0  0  0  0  0  0  0  0  0  0  0
   -4.5520   12.3540   -1.3890 C   0  0  0  0  0  0  0  0  0  0  0  0
   -5.7750   13.0190    0.6060 C   0  0  0  0  0  0  0  0  0  0  0  0
   -5.2970   11.1740   -1.4340 C   0  0  0  0  0  0  0  0  0  0  0  0
   -6.5040   11.8370    0.5410 C   0  0  0  0  0  0  0  0  0  0  0  0
   -7.7060   11.5160    1.7300 Cl  0  0  0  0  0  0  0  0  0  0  0  0
   -5.0150   10.0180   -2.6790 Cl  0  0  0  0  0  0  0  0  0  0  0  0
   -6.2750   10.9150   -0.4730 C   0  0  0  0  0  0  0  0  0  0  0  0
  2  1  1  0
  2  3  1  0
  2  4  1  0
  2  5  1  0
  5  6  1  0
  4  7  1  0
  6  8  1  0
  7  9  2  0
  7 10  1  0
  8 11  1  0
  9 12  1  0
 10 13  1  0
 12 13  2  0
 14 11  1  0
 12 15  1  0
 13 16  1  0
 14 17  2  0
 14 18  2  0
 15 19  2  0
 16 20  2  0
 19 20  1  0
 14 21  1  0
 21 22  2  0
 21 23  1  0
 22 24  1  0
 23 25  2  0
 25 26  1  0
 24 27  1  0
 24 28  2  0
 25 28  1  0
M  END
