mac-x0357-mac-x0572
     RDKit          3D

 26 28  0  0  0  0  0  0  0  0999 V2000
    2.4140   13.1460   -4.7020 C   0  0  0  0  0  0  0  0  0  0  0  0
    1.1130   12.4310   -4.9510 C   0  0  0  0  0  0  0  0  0  0  0  0
    0.8860   11.7270   -6.1370 C   0  0  0  0  0  0  0  0  0  0  0  0
    0.0830   12.4390   -4.0160 C   0  0  0  0  0  0  0  0  0  0  0  0
    1.8580   11.7010   -7.0600 O   0  0  0  0  0  0  0  0  0  0  0  0
    0.1670   13.1620   -2.7460 C   0  0  0  0  0  0  0  0  0  0  0  0
   -1.1230   11.7550   -4.2660 C   0  0  0  0  0  0  0  0  0  0  0  0
   -0.3020   11.0490   -6.3970 C   0  0  0  0  0  0  0  0  0  0  0  0
   -0.5750   14.1640   -2.6720 N   0  0  0  0  0  0  0  0  0  0  0  0
    1.0120   12.6680   -1.8230 O   0  0  0  0  0  0  0  0  0  0  0  0
   -1.3140   11.0610   -5.4540 C   0  0  0  0  0  0  0  0  0  0  0  0
   -0.8190   15.1090   -1.6380 C   0  0  0  0  0  0  0  0  0  0  0  0
   -2.1910   15.6070   -2.0560 C   0  0  0  0  0  0  0  0  0  0  0  0
   -3.2470   15.5310   -1.0120 C   0  0  0  0  0  0  0  0  0  0  0  0
   -2.8290   15.5790    0.3720 C   0  0  0  0  0  0  0  0  0  0  0  0
   -4.5410   15.4280   -1.3540 C   0  0  0  0  0  0  0  0  0  0  0  0
   -5.6120   15.4120   -0.3250 C   0  0  1  0  0  0  0  0  0  0  0  0
   -3.6740   15.4100    1.3860 C   0  0  0  0  0  0  0  0  0  0  0  0
   -6.8930   14.6430   -0.5570 C   0  0  0  0  0  0  0  0  0  0  0  0
   -5.1000   15.1820    1.0850 C   0  0  0  0  0  0  0  0  0  0  0  0
   -7.2620   14.1600   -1.6270 O   0  0  0  0  0  0  0  0  0  0  0  0
   -7.7740   14.4940    0.6430 C   0  0  0  0  0  0  0  0  0  0  0  0
   -5.8610   14.8060    2.0600 N   0  0  0  0  0  0  0  0  0  0  0  0
   -9.1240   14.2770    0.4500 O   0  0  0  0  0  0  0  0  0  0  0  0
   -7.1990   14.5880    1.8550 C   0  0  0  0  0  0  0  0  0  0  0  0
   -7.9910   14.4650    3.1360 C   0  0  0  0  0  0  0  0  0  0  0  0
  1  2  1  0
  2  3  2  0
  2  4  1  0
  3  5  1  0
  4  6  1  0
  4  7  2  0
  3  8  1  0
  6  9  2  3
  6 10  1  0
  7 11  1  0
  8 11  2  0
  9 12  1  0
 12 13  1  0
 13 14  1  0
 14 15  1  0
 14 16  2  0
 17 16  1  6
 15 18  2  0
 17 19  1  0
 17 20  1  0
 18 20  1  0
 19 21  2  0
 19 22  1  0
 20 23  2  0
 22 24  1  0
 22 25  2  0
 23 25  1  0
 25 26  1  0
M  END
