mac-x0277-mac-x0568
     RDKit          3D

 24 25  0  0  0  0  0  0  0  0999 V2000
   -1.1560   18.3860   -5.2720 Cl  0  0  0  0  0  0  0  0  0  0  0  0
   -0.4370   16.8430   -4.9790 C   0  0  0  0  0  0  0  0  0  0  0  0
   -1.1490   15.6650   -5.1400 C   0  0  0  0  0  0  0  0  0  0  0  0
    0.8920   16.7970   -4.5680 C   0  0  0  0  0  0  0  0  0  0  0  0
   -2.5790   15.6390   -5.5660 C   0  0  0  0  0  0  0  0  0  0  0  0
   -0.5250   14.4360   -4.8910 C   0  0  0  0  0  0  0  0  0  0  0  0
    1.5090   15.5650   -4.3180 C   0  0  0  0  0  0  0  0  0  0  0  0
   -3.4500   15.4330   -4.3640 C   0  0  0  0  0  0  0  0  0  0  0  0
    0.8050   14.3710   -4.4780 C   0  0  0  0  0  0  0  0  0  0  0  0
    1.4540   13.0350   -4.2090 C   0  0  0  0  0  0  0  0  0  0  0  0
   -2.7960   14.6340   -3.2540 C   0  0  0  0  0  0  0  0  0  0  0  0
    1.0260   12.4400   -2.8880 C   0  0  0  0  0  0  0  0  0  0  0  0
   -3.8350   14.6360   -2.2780 N   0  0  0  0  0  0  0  0  0  0  0  0
    0.4900   11.2080   -3.0120 O   0  0  0  0  0  0  0  0  0  0  0  0
    1.1140   12.9430   -1.7830 O   0  0  0  0  0  0  0  0  0  0  0  0
   -3.7100   14.7710   -1.0250 C   0  0  0  0  0  0  0  0  0  0  0  0
   -2.4760   14.9290   -0.4560 N   0  0  0  0  0  0  0  0  0  0  0  0
   -4.9210   14.7380   -0.2300 C   0  0  0  0  0  0  0  0  0  0  0  0
   -6.1150   14.7360   -0.9200 C   0  0  0  0  0  0  0  0  0  0  0  0
   -4.9180   14.7010    1.1480 C   0  0  0  0  0  0  0  0  0  0  0  0
   -7.3230   14.6930   -0.3270 N   0  0  0  0  0  0  0  0  0  0  0  0
   -6.1550   14.6580    1.7860 C   0  0  0  0  0  0  0  0  0  0  0  0
   -7.3220   14.6530    1.0190 C   0  0  0  0  0  0  0  0  0  0  0  0
   -8.6570   14.6080    1.6920 C   0  0  0  0  0  0  0  0  0  0  0  0
  1  2  1  0
  2  3  2  0
  2  4  1  0
  3  5  1  0
  3  6  1  0
  4  7  2  0
  5  8  1  0
  6  9  2  0
  7  9  1  0
  9 10  1  0
  8 11  1  0
 10 12  1  0
 11 13  1  0
 12 14  1  0
 12 15  2  0
 13 16  2  3
 16 17  1  0
 16 18  1  0
 18 19  2  0
 18 20  1  0
 19 21  1  0
 20 22  2  0
 21 23  2  0
 22 23  1  0
 23 24  1  0
M  END
