mac-x0436-mac-x0190
     RDKit          3D

 29 32  0  0  0  0  0  0  0  0999 V2000
    0.7280   11.2240   -3.0250 O   0  0  0  0  0  0  0  0  0  0  0  0
    1.1980   12.4790   -2.9560 C   0  0  0  0  0  0  0  0  0  0  0  0
    1.1350   13.0940   -1.9090 O   0  0  0  0  0  0  0  0  0  0  0  0
    1.7880   12.9930   -4.2470 C   0  0  0  0  0  0  0  0  0  0  0  0
    0.7410   13.2580   -5.3240 C   0  0  0  0  0  0  0  0  0  0  0  0
   -0.1870   12.1010   -5.6180 C   0  0  0  0  0  0  0  0  0  0  0  0
   -1.5680   12.0460   -4.9510 C   0  0  0  0  0  0  0  0  0  0  0  0
    0.2190   11.1980   -6.4550 N   0  0  0  0  0  0  0  0  0  0  0  0
   -2.0250   13.0560   -4.2670 N   0  0  0  0  0  0  0  0  0  0  0  0
   -2.3050   10.8680   -5.1250 N   0  0  0  0  0  0  0  0  0  0  0  0
   -0.6180   10.1190   -6.7590 C   0  0  0  0  0  0  0  0  0  0  0  0
   -3.2320   13.3760   -3.5340 C   0  0  0  0  0  0  0  0  0  0  0  0
   -1.8650    9.9330   -6.1170 C   0  0  0  0  0  0  0  0  0  0  0  0
   -0.1810    9.2160   -7.7260 C   0  0  0  0  0  0  0  0  0  0  0  0
   -3.1220   14.7860   -2.8820 C   0  0  0  0  0  0  0  0  0  0  0  0
   -0.9650    8.1210   -8.0750 C   0  0  0  0  0  0  0  0  0  0  0  0
   -2.6470    8.8230   -6.4750 C   0  0  0  0  0  0  0  0  0  0  0  0
   -2.1970    7.9240   -7.4490 C   0  0  0  0  0  0  0  0  0  0  0  0
   -3.9550   14.8430   -1.6270 C   0  0  0  0  0  0  0  0  0  0  0  0
   -5.3290   14.6680   -1.7750 C   0  0  0  0  0  0  0  0  0  0  0  0
   -3.3900   15.0400   -0.3500 C   0  0  0  0  0  0  0  0  0  0  0  0
   -6.0970   14.6670   -0.6260 C   0  0  0  0  0  0  0  0  0  0  0  0
   -4.1950   15.0440    0.8000 C   0  0  0  0  0  0  0  0  0  0  0  0
   -7.4380   14.5040   -0.4400 N   0  0  0  0  0  0  0  0  0  0  0  0
   -5.5770   14.8420    0.6480 C   0  0  0  0  0  0  0  0  0  0  0  0
   -7.6970   14.5670    0.8960 C   0  0  0  0  0  0  0  0  0  0  0  0
   -6.5900   14.7760    1.5830 N   0  0  0  0  0  0  0  0  0  0  0  0
   -9.0740   14.4090    1.4120 C   0  0  0  0  0  0  0  0  0  0  0  0
   -9.2000   15.2170    2.5710 O   0  0  0  0  0  0  0  0  0  0  0  0
  1  2  1  0
  2  3  2  0
  2  4  1  0
  4  5  1  0
  5  6  1  0
  6  7  1  0
  6  8  2  0
  7  9  2  3
  7 10  1  0
  8 11  1  0
  9 12  1  0
 10 13  1  0
 11 13  2  0
 11 14  1  0
 12 15  1  0
 14 16  2  0
 13 17  1  0
 16 18  1  0
 17 18  2  0
 15 19  1  0
 19 20  2  0
 19 21  1  0
 20 22  1  0
 21 23  2  0
 22 24  1  0
 22 25  2  0
 23 25  1  0
 24 26  1  0
 25 27  1  0
 26 27  2  0
 26 28  1  0
 28 29  1  0
M  END
