mac-x0357-mac-x0116
     RDKit          3D

 27 30  0  0  0  0  0  0  0  0999 V2000
    2.4600   13.3570   -4.1590 C   0  0  0  0  0  0  0  0  0  0  0  0
    1.2180   12.6380   -4.5910 C   0  0  0  0  0  0  0  0  0  0  0  0
    1.1400   12.0360   -5.8610 C   0  0  0  0  0  0  0  0  0  0  0  0
    0.0700   12.5180   -3.7770 C   0  0  0  0  0  0  0  0  0  0  0  0
    2.1650   12.0730   -6.7310 O   0  0  0  0  0  0  0  0  0  0  0  0
   -0.1810   13.0490   -2.4070 C   0  0  0  0  0  0  0  0  0  0  0  0
   -1.0650   11.8210   -4.2490 C   0  0  0  0  0  0  0  0  0  0  0  0
    0.0150   11.3500   -6.3210 C   0  0  0  0  0  0  0  0  0  0  0  0
   -0.1650   14.2950   -2.0560 N   0  0  0  0  0  0  0  0  0  0  0  0
   -0.5380   12.0630   -1.5590 O   0  0  0  0  0  0  0  0  0  0  0  0
   -1.0960   11.2390   -5.5090 C   0  0  0  0  0  0  0  0  0  0  0  0
   -0.7560   14.4320   -0.8190 N   0  0  0  0  0  0  0  0  0  0  0  0
   -2.0830   14.6780   -0.8050 C   0  0  0  0  0  0  0  0  0  0  0  0
   -0.3680   14.3810    0.5140 C   0  0  0  0  0  0  0  0  0  0  0  0
   -2.8240   14.8080   -1.9210 N   0  0  0  0  0  0  0  0  0  0  0  0
   -2.4860   14.7580    0.5130 C   0  0  0  0  0  0  0  0  0  0  0  0
   -1.3960   14.5730    1.3610 N   0  0  0  0  0  0  0  0  0  0  0  0
   -4.0950   15.0370   -1.6350 C   0  0  0  0  0  0  0  0  0  0  0  0
   -3.8760   15.0010    0.6890 C   0  0  0  0  0  0  0  0  0  0  0  0
   -4.5320   15.1140    1.9070 N   0  0  0  0  0  0  0  0  0  0  0  0
   -4.6450   15.1330   -0.4270 N   0  0  0  0  0  0  0  0  0  0  0  0
   -5.9420   14.7320    1.9030 C   0  0  0  0  0  0  0  0  0  0  0  0
   -6.3380   13.2940    1.8190 C   0  0  0  0  0  0  0  0  0  0  0  0
   -6.2650   12.6940    0.5910 O   0  0  0  0  0  0  0  0  0  0  0  0
   -6.8010   12.3940    2.7550 C   0  0  0  0  0  0  0  0  0  0  0  0
   -7.0270   11.1890    2.0670 C   0  0  0  0  0  0  0  0  0  0  0  0
   -6.6870   11.4190    0.7580 C   0  0  0  0  0  0  0  0  0  0  0  0
  1  2  1  0
  2  3  2  0
  2  4  1  0
  3  5  1  0
  4  6  1  0
  4  7  2  0
  3  8  1  0
  6  9  2  3
  6 10  1  0
  7 11  1  0
  8 11  2  0
  9 12  1  0
 12 13  1  0
 12 14  1  0
 13 15  2  0
 13 16  1  0
 14 17  2  0
 16 17  1  0
 15 18  1  0
 16 19  2  0
 19 20  1  0
 18 21  2  0
 19 21  1  0
 20 22  1  0
 22 23  1  0
 23 24  1  0
 23 25  2  0
 25 26  1  0
 24 27  1  0
 26 27  2  0
M  END
