mac-x0123-mac-x0587
     RDKit          3D

 23 25  0  0  0  0  0  0  0  0999 V2000
   -3.4300   14.6060    1.7170 N   0  0  0  0  0  0  0  0  0  0  0  0
   -4.4860   14.6240    0.8340 C   0  0  0  0  0  0  0  0  0  0  0  0
   -5.7910   14.5380    1.1740 C   0  0  0  0  0  0  0  0  0  0  0  0
   -4.2100   14.7280   -0.5420 N   0  0  0  0  0  0  0  0  0  0  0  0
   -5.2200   14.7530   -1.5180 C   0  0  0  0  0  0  0  0  0  0  0  0
   -6.7970   14.5810    0.0710 C   0  0  0  0  0  0  0  0  0  0  0  0
   -6.5120   14.4000    2.4610 C   0  0  0  0  0  0  0  0  0  0  0  0
   -2.8990   14.8250   -1.2460 N   0  0  0  0  0  0  0  0  0  0  0  0
   -1.7870   14.8270   -0.6320 O   0  0  0  0  0  0  0  0  0  0  0  0
   -6.5440   14.6790   -1.1940 N   0  0  0  0  0  0  0  0  0  0  0  0
   -8.1900   14.5040    0.6070 C   0  0  0  0  0  0  0  0  0  0  0  0
   -7.9990   14.2670    2.1090 C   0  0  0  0  0  0  0  0  0  0  0  0
   -4.6680   14.8530   -2.7270 N   0  0  0  0  0  0  0  0  0  0  0  0
   -3.2520   14.8990   -2.5500 C   0  0  0  0  0  0  0  0  0  0  0  0
   -2.3470   15.0190   -3.7050 C   0  0  0  0  0  0  0  0  0  0  0  0
   -0.8320   14.7230   -3.5840 C   0  0  2  0  0  0  0  0  0  0  0  0
   -2.8210   15.3650   -4.7780 O   0  0  0  0  0  0  0  0  0  0  0  0
    0.0160   15.9530   -3.9250 C   0  0  0  0  0  0  0  0  0  0  0  0
   -0.3220   13.4470   -4.8290 S   0  0  0  0  0  0  0  0  0  0  0  0
   -0.5910   11.8750   -3.9430 C   0  0  0  0  0  0  0  0  0  0  0  0
    0.4710   11.4910   -2.9340 C   0  0  0  0  0  0  0  0  0  0  0  0
    0.5600   10.3670   -2.4400 O   0  0  0  0  0  0  0  0  0  0  0  0
    1.3400   12.4960   -2.6060 O   0  0  0  0  0  0  0  0  0  0  0  0
  1  2  1  0
  2  3  2  0
  2  4  1  0
  4  5  1  0
  3  6  1  0
  3  7  1  0
  4  8  1  0
  8  9  1  0
  5 10  1  0
  6 10  2  0
  6 11  1  0
  7 12  1  0
 11 12  1  0
  5 13  2  0
  8 14  2  0
 13 14  1  0
 14 15  1  0
 15 16  1  0
 15 17  2  0
 16 18  1  6
 16 19  1  0
 19 20  1  0
 20 21  1  0
 21 22  2  0
 21 23  1  0
M  CHG  2   8   1   9  -1
M  END
