mac-x0576-mac-x0139
     RDKit          3D

 19 20  0  0  0  0  0  0  0  0999 V2000
   -0.0340   13.9330    1.7160 N   0  0  0  0  0  0  0  0  0  0  0  0
   -0.7560   14.8120    0.8700 C   0  0  2  0  0  0  0  0  0  0  0  0
   -2.0420   14.8570    1.5170 N   0  0  0  0  0  0  0  0  0  0  0  0
   -0.6950   14.4860   -0.5030 N   0  0  0  0  0  0  0  0  0  0  0  0
   -1.6820   14.7930   -1.4100 C   0  0  0  0  0  0  0  0  0  0  0  0
   -3.0790   14.3280    0.6440 C   0  0  2  0  0  0  0  0  0  0  0  0
   -1.4230   14.9190   -2.7250 C   0  0  0  0  0  0  0  0  0  0  0  0
   -3.0650   14.9950   -0.7570 C   0  0  2  0  0  0  0  0  0  0  0  0
   -4.3090   14.6630    1.3030 N   0  0  0  0  0  0  0  0  0  0  0  0
   -2.4700   15.2660   -3.7600 C   0  0  0  0  0  0  0  0  0  0  0  0
   -0.0210   14.7410   -3.3020 C   0  0  0  0  0  0  0  0  0  0  0  0
   -5.4690   14.8630    0.6010 C   0  0  0  0  0  0  0  0  0  0  0  0
   -4.1940   14.4910   -1.5460 N   0  0  0  0  0  0  0  0  0  0  0  0
   -6.5460   14.8340    1.1900 O   0  0  0  0  0  0  0  0  0  0  0  0
    0.1780   13.3680   -3.9380 C   0  0  0  0  0  0  0  0  0  0  0  0
   -5.3800   15.1130   -0.9170 C   0  0  0  0  0  0  0  0  0  0  0  0
    0.9420   12.4440   -3.0230 C   0  0  0  0  0  0  0  0  0  0  0  0
    1.8270   12.7860   -2.2630 O   0  0  0  0  0  0  0  0  0  0  0  0
    0.5510   11.1560   -3.1080 O   0  0  0  0  0  0  0  0  0  0  0  0
  2  1  1  1
  2  3  1  0
  2  4  1  0
  4  5  1  0
  6  3  1  1
  5  7  2  3
  5  8  1  0
  6  8  1  0
  6  9  1  0
  7 10  1  0
  7 11  1  0
  9 12  1  0
  8 13  1  6
 12 14  2  0
 11 15  1  0
 12 16  1  0
 13 16  1  0
 15 17  1  0
 17 18  2  0
 17 19  1  0
M  END
