mac-x1493-mac-x0190
     RDKit          3D

 15 16  0  0  0  0  0  0  0  0999 V2000
   -1.1710   14.7490   -1.5700 O   0  0  0  0  0  0  0  0  0  0  0  0
   -2.2340   14.9270   -2.3750 C   0  0  0  0  0  0  0  0  0  0  0  0
   -2.1010   15.1210   -3.5680 O   0  0  0  0  0  0  0  0  0  0  0  0
   -3.5130   14.8620   -1.6540 C   0  0  0  0  0  0  0  0  0  0  0  0
   -3.6430   14.9610   -0.2680 C   0  0  0  0  0  0  0  0  0  0  0  0
   -4.6560   14.6800   -2.4060 C   0  0  0  0  0  0  0  0  0  0  0  0
   -4.9210   14.8540    0.3060 C   0  0  0  0  0  0  0  0  0  0  0  0
   -5.8950   14.5770   -1.8810 N   0  0  0  0  0  0  0  0  0  0  0  0
   -6.0190   14.6560   -0.5540 C   0  0  0  0  0  0  0  0  0  0  0  0
   -5.1260   14.9300    1.6920 C   0  0  0  0  0  0  0  0  0  0  0  0
   -7.2810   14.5290   -0.0120 C   0  0  0  0  0  0  0  0  0  0  0  0
   -6.4190   14.7980    2.2150 C   0  0  0  0  0  0  0  0  0  0  0  0
   -7.5070   14.5910    1.3590 C   0  0  0  0  0  0  0  0  0  0  0  0
   -8.9090   14.4320    1.8670 C   0  0  0  0  0  0  0  0  0  0  0  0
   -9.2090   15.4400    2.8090 O   0  0  0  0  0  0  0  0  0  0  0  0
  1  2  1  0
  2  3  2  0
  2  4  1  0
  4  5  2  0
  4  6  1  0
  5  7  1  0
  6  8  2  0
  7  9  2  0
  8  9  1  0
  7 10  1  0
  9 11  1  0
 10 12  2  0
 11 13  2  0
 12 13  1  0
 13 14  1  0
 14 15  1  0
M  END
