mac-x0417-mac-x0204
     RDKit          3D

 22 24  0  0  0  0  0  0  0  0999 V2000
    0.7450   13.0100   -2.5270 O   0  0  0  0  0  0  0  0  0  0  0  0
    0.6290   12.0310   -3.4610 C   0  0  0  0  0  0  0  0  0  0  0  0
    0.4670   10.8340   -3.2590 O   0  0  0  0  0  0  0  0  0  0  0  0
    0.2410   14.2460   -2.7800 C   0  0  0  0  0  0  0  0  0  0  0  0
    0.7250   12.6340   -4.8470 C   0  0  0  0  0  0  0  0  0  0  0  0
    0.6560   15.3120   -2.3640 O   0  0  0  0  0  0  0  0  0  0  0  0
   -0.9550   14.1810   -3.6810 C   0  0  0  0  0  0  0  0  0  0  0  0
    0.4650   11.6410   -5.9180 C   0  0  0  0  0  0  0  0  0  0  0  0
   -1.3180   15.3240   -4.4080 C   0  0  0  0  0  0  0  0  0  0  0  0
   -1.7450   13.0420   -3.8500 C   0  0  0  0  0  0  0  0  0  0  0  0
    1.3690   11.5120   -6.8910 N   0  0  0  0  0  0  0  0  0  0  0  0
   -0.6270   10.7470   -6.1050 C   0  0  0  0  0  0  0  0  0  0  0  0
   -2.4240   15.2830   -5.2520 C   0  0  0  0  0  0  0  0  0  0  0  0
   -2.8300   12.9860   -4.6730 N   0  0  0  0  0  0  0  0  0  0  0  0
   -2.7710   16.4000   -5.9540 O   0  0  0  0  0  0  0  0  0  0  0  0
    0.8810   10.5370   -7.7450 O   0  0  0  0  0  0  0  0  0  0  0  0
   -0.3040   10.0780   -7.2760 C   0  0  0  0  0  0  0  0  0  0  0  0
   -1.8300   10.4110   -5.4530 C   0  0  0  0  0  0  0  0  0  0  0  0
   -3.1450   14.1040   -5.3550 C   0  0  0  0  0  0  0  0  0  0  0  0
   -1.0880    9.0900   -7.8650 C   0  0  0  0  0  0  0  0  0  0  0  0
   -2.6420    9.4150   -6.0220 C   0  0  0  0  0  0  0  0  0  0  0  0
   -2.2780    8.7680   -7.2070 C   0  0  0  0  0  0  0  0  0  0  0  0
  1  2  1  0
  2  3  2  0
  1  4  1  0
  2  5  1  0
  4  6  2  0
  4  7  1  0
  5  8  1  0
  7  9  2  0
  7 10  1  0
  8 11  2  0
  8 12  1  0
  9 13  1  0
 10 14  2  0
 13 15  1  0
 11 16  1  0
 12 17  2  0
 16 17  1  0
 12 18  1  0
 13 19  2  0
 14 19  1  0
 17 20  1  0
 18 21  2  0
 20 22  2  0
 21 22  1  0
M  END
