mac-x0123-diamond-x0969_0_A
     RDKit          3D

 14 16  0  0  0  0  0  0  0  0999 V2000
   -3.6020   14.5770    1.7580 N   0  0  0  0  0  0  0  0  0  0  0  0
   -4.7330   14.9810    0.8920 C   0  0  2  0  0  0  0  0  0  0  0  0
   -6.1750   14.5060    1.3900 C   0  0  1  0  0  0  0  0  0  0  0  0
   -4.4730   14.5700   -0.4790 N   0  0  0  0  0  0  0  0  0  0  0  0
   -6.6340   15.1270    2.6420 N   0  0  0  0  0  0  0  0  0  0  0  0
   -5.5050   14.9750   -1.4000 C   0  0  2  0  0  0  0  0  0  0  0  0
   -7.2140   14.6100    0.2170 C   0  0  1  0  0  0  0  0  0  0  0  0
   -6.3160   13.0580    1.7020 C   0  0  0  0  0  0  0  0  0  0  0  0
   -3.2140   14.9610   -1.0860 N   0  0  0  0  0  0  0  0  0  0  0  0
   -6.7050   14.2300   -1.1190 N   0  0  0  0  0  0  0  0  0  0  0  0
   -8.3480   13.7280    0.7420 C   0  0  0  0  0  0  0  0  0  0  0  0
   -7.5410   12.6280    1.3620 C   0  0  0  0  0  0  0  0  0  0  0  0
   -4.9440   14.5690   -2.6570 N   0  0  0  0  0  0  0  0  0  0  0  0
   -3.5270   14.9020   -2.5200 C   0  0  0  0  0  0  0  0  0  0  0  0
  2  1  1  1
  2  3  1  0
  2  4  1  0
  3  5  1  1
  4  6  1  0
  3  7  1  0
  3  8  1  0
  4  9  1  0
  6 10  1  1
  7 10  1  0
  7 11  1  1
  8 12  2  0
 11 12  1  0
  6 13  1  0
  9 14  1  0
 13 14  1  0
M  END
