mac-x0381-diamond-x0849_0_A
     RDKit          3D

 26 29  0  0  0  0  0  0  0  0999 V2000
   -8.0460   13.2790    3.8060 N   0  0  0  0  0  0  0  0  0  0  0  0
   -8.2330   14.6250    3.6250 C   0  0  0  0  0  0  0  0  0  0  0  0
   -7.2180   15.3830    3.5520 N   0  0  0  0  0  0  0  0  0  0  0  0
   -9.5920   15.1380    3.4230 C   0  0  0  0  0  0  0  0  0  0  0  0
   -5.8690   14.8780    3.5470 C   0  0  0  0  0  0  0  0  0  0  0  0
   -9.7140   15.9030    2.2650 C   0  0  0  0  0  0  0  0  0  0  0  0
  -10.6770   14.9050    4.2560 C   0  0  0  0  0  0  0  0  0  0  0  0
   -5.8490   14.3820    2.0930 C   0  0  0  0  0  0  0  0  0  0  0  0
  -10.9330   16.4550    1.8980 C   0  0  0  0  0  0  0  0  0  0  0  0
  -11.9170   15.4560    3.8970 C   0  0  0  0  0  0  0  0  0  0  0  0
  -12.0550   16.2260    2.7210 C   0  0  0  0  0  0  0  0  0  0  0  0
  -11.0530   17.2230    0.7310 C   0  0  0  0  0  0  0  0  0  0  0  0
   -4.6050   14.5620    1.2690 C   0  0  0  0  0  0  0  0  0  0  0  0
  -13.2870   16.7770    2.3400 C   0  0  0  0  0  0  0  0  0  0  0  0
  -12.2850   17.7640    0.3720 C   0  0  0  0  0  0  0  0  0  0  0  0
   -3.4440   14.5120    1.9060 N   0  0  0  0  0  0  0  0  0  0  0  0
   -4.6900   14.7430   -0.1050 C   0  0  0  0  0  0  0  0  0  0  0  0
  -13.4000   17.5410    1.1750 C   0  0  0  0  0  0  0  0  0  0  0  0
   -2.3310   14.6060    1.2250 C   0  0  0  0  0  0  0  0  0  0  0  0
   -3.5070   14.8440   -0.8240 C   0  0  0  0  0  0  0  0  0  0  0  0
   -3.6360   15.0730   -2.7080 Br  0  0  0  0  0  0  0  0  0  0  0  0
   -2.2760   14.7660   -0.1610 C   0  0  0  0  0  0  0  0  0  0  0  0
   -1.2690   14.5290    1.9520 N   0  0  0  0  0  0  0  0  0  0  0  0
   -0.0840   14.5990    1.3830 C   0  0  0  0  0  0  0  0  0  0  0  0
   -0.9940   14.8310   -0.7590 C   0  0  0  0  0  0  0  0  0  0  0  0
    0.1330   14.7470    0.0340 C   0  0  0  0  0  0  0  0  0  0  0  0
  1  2  1  0
  2  3  2  3
  2  4  1  0
  3  5  1  0
  4  6  2  0
  4  7  1  0
  5  8  1  0
  6  9  1  0
  7 10  2  0
  9 11  2  0
 10 11  1  0
  9 12  1  0
  8 13  1  0
 11 14  1  0
 12 15  2  0
 13 16  2  0
 13 17  1  0
 14 18  2  0
 15 18  1  0
 16 19  1  0
 17 20  2  0
 20 21  1  0
 19 22  2  0
 20 22  1  0
 19 23  1  0
 23 24  2  0
 22 25  1  0
 24 26  1  0
 25 26  2  0
M  END
