mac-x0204-diamond-x0962_3_A
     RDKit          3D

 20 21  0  0  0  0  0  0  0  0999 V2000
    0.6040   12.9360   -2.4560 O   0  0  0  0  0  0  0  0  0  0  0  0
    0.0930   14.1580   -2.7220 C   0  0  0  0  0  0  0  0  0  0  0  0
    0.7990   15.1550   -2.7020 O   0  0  0  0  0  0  0  0  0  0  0  0
   -1.3980   14.1720   -3.0320 C   0  0  1  0  0  0  0  0  0  0  0  0
   -1.7340   15.4140   -3.8870 C   0  0  0  0  0  0  0  0  0  0  0  0
   -1.8750   12.7660   -3.5010 C   0  0  0  0  0  0  0  0  0  0  0  0
   -2.1230   15.0970   -5.2920 C   0  0  2  0  0  0  0  0  0  0  0  0
   -2.4720   12.7210   -4.8520 N   0  0  0  0  0  0  0  0  0  0  0  0
   -2.6550   16.2670   -5.9340 O   0  0  0  0  0  0  0  0  0  0  0  0
   -1.5810   12.2010   -5.8890 C   0  0  0  0  0  0  0  0  0  0  0  0
   -3.1280   13.9540   -5.2910 C   0  0  0  0  0  0  0  0  0  0  0  0
   -0.1800   11.6710   -5.5370 C   0  0  0  0  0  0  0  0  0  0  0  0
    0.8820   11.8390   -6.6170 C   0  0  0  0  0  0  0  0  0  0  0  0
    1.0030   10.7420   -7.6980 C   0  0  2  0  0  0  0  0  0  0  0  0
    1.0220   11.2440   -9.0590 N   0  0  0  0  0  0  0  0  0  0  0  0
   -0.0150    9.6950   -7.6560 C   0  0  0  0  0  0  0  0  0  0  0  0
    0.1080    8.5250   -8.3560 N   0  0  0  0  0  0  0  0  0  0  0  0
   -1.2160    9.5910   -7.0010 C   0  0  0  0  0  0  0  0  0  0  0  0
   -0.9990    7.7810   -8.0990 C   0  0  0  0  0  0  0  0  0  0  0  0
   -1.8180    8.4000   -7.2820 N   0  0  0  0  0  0  0  0  0  0  0  0
  1  2  1  0
  2  3  2  0
  4  2  1  6
  4  5  1  0
  4  6  1  0
  5  7  1  0
  6  8  1  0
  7  9  1  1
  8 10  1  0
  7 11  1  0
  8 11  1  0
 10 12  1  0
 12 13  1  0
 13 14  1  0
 14 15  1  6
 14 16  1  0
 16 17  1  0
 16 18  2  0
 17 19  1  0
 18 20  1  0
 19 20  2  0
M  END
