mac-x1493-mac-x0283
     RDKit          3D

 13 14  0  0  0  0  0  0  0  0999 V2000
   -1.2300   14.7260   -1.6170 O   0  0  0  0  0  0  0  0  0  0  0  0
   -2.3060   14.8930   -2.4070 C   0  0  0  0  0  0  0  0  0  0  0  0
   -2.1870   15.0560   -3.6070 O   0  0  0  0  0  0  0  0  0  0  0  0
   -3.5750   14.8400   -1.6630 C   0  0  0  0  0  0  0  0  0  0  0  0
   -3.6680   14.9660   -0.2770 C   0  0  0  0  0  0  0  0  0  0  0  0
   -4.7460   14.6490   -2.3740 C   0  0  0  0  0  0  0  0  0  0  0  0
   -4.9240   14.8810    0.3360 C   0  0  0  0  0  0  0  0  0  0  0  0
   -5.9750   14.5660   -1.8100 N   0  0  0  0  0  0  0  0  0  0  0  0
   -6.0580   14.6750   -0.4740 C   0  0  0  0  0  0  0  0  0  0  0  0
   -5.0670   14.9890    1.7250 C   0  0  0  0  0  0  0  0  0  0  0  0
   -7.3030   14.5800    0.1310 C   0  0  0  0  0  0  0  0  0  0  0  0
   -6.3330   14.8870    2.3070 C   0  0  0  0  0  0  0  0  0  0  0  0
   -7.4500   14.6800    1.5150 C   0  0  0  0  0  0  0  0  0  0  0  0
  1  2  1  0
  2  3  2  0
  2  4  1  0
  4  5  2  0
  4  6  1  0
  5  7  1  0
  6  8  2  0
  7  9  2  0
  8  9  1  0
  7 10  1  0
  9 11  1  0
 10 12  2  0
 11 13  2  0
 12 13  1  0
M  END
