mac-x0522-diamond-x0662_0_A
     RDKit          3D

 24 26  0  0  0  0  0  0  0  0999 V2000
    2.0310    9.1210  -10.5240 N   0  0  0  0  0  0  0  0  0  0  0  0
    2.9230    8.6950  -11.3550 C   0  0  0  0  0  0  0  0  0  0  0  0
    3.3810    7.4560  -10.9780 N   0  0  0  0  0  0  0  0  0  0  0  0
    1.3590   10.2910  -10.5140 N   0  0  0  0  0  0  0  0  0  0  0  0
    3.3810    9.5010  -12.5420 C   0  0  0  0  0  0  0  0  0  0  0  0
    0.4970   10.1460   -9.3950 C   0  0  0  0  0  0  0  0  0  0  0  0
    2.9810    6.7530   -9.8730 C   0  0  0  0  0  0  0  0  0  0  0  0
    4.4800    9.0710  -13.2960 C   0  0  0  0  0  0  0  0  0  0  0  0
    2.7280   10.6940  -12.9100 C   0  0  0  0  0  0  0  0  0  0  0  0
   -0.5620    9.2430   -9.4280 C   0  0  0  0  0  0  0  0  0  0  0  0
    0.7040   10.8900   -8.2250 C   0  0  0  0  0  0  0  0  0  0  0  0
    3.5660    5.7180   -9.3000 N   0  0  0  0  0  0  0  0  0  0  0  0
    1.5160    7.2320   -9.0640 S   0  0  0  0  0  0  0  0  0  0  0  0
    4.9180    9.8110  -14.3920 C   0  0  0  0  0  0  0  0  0  0  0  0
    3.1730   11.4330  -14.0080 C   0  0  0  0  0  0  0  0  0  0  0  0
   -1.3920    9.0820   -8.3230 C   0  0  0  0  0  0  0  0  0  0  0  0
   -0.1200   10.7500   -7.0990 C   0  0  0  0  0  0  0  0  0  0  0  0
    0.1210   11.5720   -5.8470 C   0  0  0  0  0  0  0  0  0  0  0  0
    1.6990    5.9830   -7.9120 C   0  0  0  0  0  0  0  0  0  0  0  0
    2.8470    5.2810   -8.1960 C   0  0  0  0  0  0  0  0  0  0  0  0
    4.2690   10.9910  -14.7490 C   0  0  0  0  0  0  0  0  0  0  0  0
   -1.1720    9.8300   -7.1680 C   0  0  0  0  0  0  0  0  0  0  0  0
   -0.8430   11.6870   -5.0300 O   0  0  0  0  0  0  0  0  0  0  0  0
    1.2750   12.0800   -5.6970 O   0  0  0  0  0  0  0  0  0  0  0  0
  1  2  2  3
  2  3  1  0
  1  4  1  0
  2  5  1  0
  4  6  1  0
  3  7  1  0
  5  8  2  0
  5  9  1  0
  6 10  2  0
  6 11  1  0
  7 12  2  0
  7 13  1  0
  8 14  1  0
  9 15  2  0
 10 16  1  0
 11 17  2  0
 17 18  1  0
 13 19  1  0
 12 20  1  0
 19 20  2  0
 14 21  2  0
 15 21  1  0
 16 22  2  0
 17 22  1  0
 18 23  2  0
 18 24  1  0
M  CHG  1  24  -1
M  END
