mac-x0451-diamond-x0962_0_A
     RDKit          3D

 11 12  0  0  0  0  0  0  0  0999 V2000
   -6.3980   14.4780    2.1440 N   0  0  0  0  0  0  0  0  0  0  0  0
   -5.4680   14.6350    1.0510 C   0  0  2  0  0  0  0  0  0  0  0  0
   -5.1970   13.3250    0.5460 N   0  0  0  0  0  0  0  0  0  0  0  0
   -3.9070   15.2800    1.6020 S   0  0  0  0  0  0  0  0  0  0  0  0
   -4.5570   13.2040   -0.7840 C   0  0  0  0  0  0  0  0  0  0  0  0
   -3.5420   15.7710   -0.0920 C   0  0  2  0  0  0  0  0  0  0  0  0
   -3.1210   13.4650   -0.8520 N   0  0  0  0  0  0  0  0  0  0  0  0
   -4.8870   15.8890   -0.7590 C   0  0  0  0  0  0  0  0  0  0  0  0
   -2.8970   14.8430   -1.1340 C   0  0  1  0  0  0  0  0  0  0  0  0
   -4.8480   15.6250   -2.0600 C   0  0  0  0  0  0  0  0  0  0  0  0
   -3.4590   15.3170   -2.4870 C   0  0  0  0  0  0  0  0  0  0  0  0
  2  1  1  1
  2  3  1  0
  2  4  1  0
  3  5  1  0
  4  6  1  0
  5  7  1  0
  6  8  1  6
  6  9  1  0
  7  9  1  0
  8 10  2  0
  9 11  1  6
 10 11  1  0
M  END
