mac-x0228-mac-x0303
     RDKit          3D

 16 17  0  0  0  0  0  0  0  0999 V2000
   -1.1120   14.5560   -1.6540 O   0  0  0  0  0  0  0  0  0  0  0  0
   -2.0730   14.6730   -2.5820 C   0  0  0  0  0  0  0  0  0  0  0  0
   -1.8070   14.6840   -3.7720 O   0  0  0  0  0  0  0  0  0  0  0  0
   -3.4390   14.7780   -2.0030 C   0  0  0  0  0  0  0  0  0  0  0  0
   -3.7190   14.5560   -0.6420 C   0  0  0  0  0  0  0  0  0  0  0  0
   -4.4800   15.1140   -2.8840 C   0  0  0  0  0  0  0  0  0  0  0  0
   -5.0380   14.6760   -0.2160 C   0  0  0  0  0  0  0  0  0  0  0  0
   -5.7980   15.2320   -2.4350 C   0  0  0  0  0  0  0  0  0  0  0  0
   -6.0470   15.0100   -1.1050 C   0  0  0  0  0  0  0  0  0  0  0  0
   -5.6400   14.4940    1.1300 C   0  0  0  0  0  0  0  0  0  0  0  0
   -7.2860   15.0860   -0.5200 O   0  0  0  0  0  0  0  0  0  0  0  0
   -7.0870   14.2730    0.6730 C   0  0  2  0  0  0  0  0  0  0  0  0
   -8.3530   14.5030    1.9820 S   0  0  0  0  0  0  0  0  0  0  0  0
   -8.3690   12.9880    2.7050 N   0  0  0  0  0  0  0  0  0  0  0  0
   -7.9300   15.4260    3.0030 O   0  0  0  0  0  0  0  0  0  0  0  0
   -9.6450   14.6370    1.3460 O   0  0  0  0  0  0  0  0  0  0  0  0
  1  2  1  0
  2  3  2  0
  2  4  1  0
  4  5  2  0
  4  6  1  0
  5  7  1  0
  6  8  2  0
  7  9  2  0
  8  9  1  0
  7 10  1  0
  9 11  1  0
 10 12  1  0
 11 12  1  0
 12 13  1  1
 13 14  1  0
 13 15  2  0
 13 16  2  0
M  END
