mac-x0180-diamond-x1012_0_A
     RDKit          3D

 25 26  0  0  0  0  0  0  0  0999 V2000
   -8.0450   14.5410    1.4700 C   0  0  0  0  0  0  0  0  0  0  0  0
   -6.9840   14.6780    0.4110 C   0  0  0  0  0  0  0  0  0  0  0  0
   -7.2790   14.7110   -0.7770 O   0  0  0  0  0  0  0  0  0  0  0  0
   -5.7170   14.7650    0.9540 N   0  0  0  0  0  0  0  0  0  0  0  0
   -4.5330   14.9750    0.2420 C   0  0  0  0  0  0  0  0  0  0  0  0
   -3.2940   14.9640    0.8690 C   0  0  0  0  0  0  0  0  0  0  0  0
   -4.6270   15.2020   -1.1420 C   0  0  0  0  0  0  0  0  0  0  0  0
   -2.1450   15.1710    0.1340 C   0  0  0  0  0  0  0  0  0  0  0  0
   -3.4750   15.4110   -1.8870 C   0  0  0  0  0  0  0  0  0  0  0  0
   -2.2520   15.3880   -1.2220 C   0  0  0  0  0  0  0  0  0  0  0  0
   -1.0370   15.5900   -1.9220 C   0  0  0  0  0  0  0  0  0  0  0  0
   -0.7110   15.4760   -3.0920 N   0  0  0  0  0  0  0  0  0  0  0  0
   -0.0840   15.9630   -1.0810 O   0  0  0  0  0  0  0  0  0  0  0  0
   -1.5440   15.0580   -4.1680 C   0  0  2  0  0  0  0  0  0  0  0  0
   -1.1270   13.6080   -4.2080 C   0  0  0  0  0  0  0  0  0  0  0  0
   -0.9080   15.8810   -5.1220 N   0  0  0  0  0  0  0  0  0  0  0  0
   -1.1900   17.2400   -4.9800 C   0  0  0  0  0  0  0  0  0  0  0  0
    0.1680   13.6900   -3.4070 C   0  0  1  0  0  0  0  0  0  0  0  0
    0.5510   15.5460   -5.1870 C   0  0  0  0  0  0  0  0  0  0  0  0
   -0.1760   18.1190   -4.8470 N   0  0  0  0  0  0  0  0  0  0  0  0
   -2.3330   17.6900   -4.9380 O   0  0  0  0  0  0  0  0  0  0  0  0
    0.7220   12.3570   -2.9590 C   0  0  0  0  0  0  0  0  0  0  0  0
    1.1800   14.6490   -4.0820 C   0  0  0  0  0  0  0  0  0  0  0  0
    0.1160   11.2790   -3.4980 O   0  0  0  0  0  0  0  0  0  0  0  0
    1.6270   12.2480   -2.1660 O   0  0  0  0  0  0  0  0  0  0  0  0
  1  2  1  0
  2  3  2  0
  2  4  1  0
  4  5  1  0
  5  6  2  0
  5  7  1  0
  6  8  1  0
  7  9  2  0
  8 10  2  0
  9 10  1  0
 10 11  1  0
 11 12  2  3
 11 13  1  0
 14 12  1  1
 14 15  1  0
 14 16  1  0
 16 17  1  0
 15 18  1  0
 16 19  1  0
 17 20  1  0
 17 21  2  0
 18 22  1  6
 18 23  1  0
 19 23  1  0
 22 24  1  0
 22 25  2  0
M  END
