mac-x0223-mac-x0412
     RDKit          3D

 26 28  0  0  0  0  0  0  0  0999 V2000
    1.0970   18.3970   -5.4550 C   0  0  0  0  0  0  0  0  0  0  0  0
   -0.1290   18.0720   -4.8200 O   0  0  0  0  0  0  0  0  0  0  0  0
   -0.3250   16.7270   -4.6990 C   0  0  0  0  0  0  0  0  0  0  0  0
   -1.6400   16.2220   -4.6680 C   0  0  0  0  0  0  0  0  0  0  0  0
    0.7230   15.7960   -4.6040 C   0  0  0  0  0  0  0  0  0  0  0  0
   -2.7480   16.9620   -4.7430 O   0  0  0  0  0  0  0  0  0  0  0  0
   -1.8730   14.8750   -4.5640 C   0  0  0  0  0  0  0  0  0  0  0  0
    0.4420   14.4270   -4.4900 C   0  0  0  0  0  0  0  0  0  0  0  0
    1.4780   13.3610   -4.3630 C   0  0  0  0  0  0  0  0  0  0  0  0
   -3.6230   16.0080   -5.3820 C   0  0  0  0  0  0  0  0  0  0  0  0
   -0.8510   13.9890   -4.4800 C   0  0  0  0  0  0  0  0  0  0  0  0
    1.0970   12.4450   -3.2210 C   0  0  0  0  0  0  0  0  0  0  0  0
   -4.3450   14.9670   -4.4320 C   0  0  0  0  0  0  0  0  0  0  0  0
    0.5140   11.3750   -3.2510 O   0  0  0  0  0  0  0  0  0  0  0  0
    1.4600   12.9720   -2.0330 O   0  0  0  0  0  0  0  0  0  0  0  0
   -4.3390   14.9370   -2.8680 C   0  0  0  0  0  0  0  0  0  0  0  0
   -3.1570   15.1810   -2.0380 C   0  0  0  0  0  0  0  0  0  0  0  0
   -5.4750   14.5920   -2.2100 C   0  0  0  0  0  0  0  0  0  0  0  0
   -5.5730   14.4150   -0.7010 C   0  0  2  0  0  0  0  0  0  0  0  0
   -3.1920   15.1850   -0.6760 C   0  0  0  0  0  0  0  0  0  0  0  0
   -6.9150   14.8050   -0.0350 C   0  0  0  0  0  0  0  0  0  0  0  0
   -4.4080   14.9750    0.0710 C   0  0  0  0  0  0  0  0  0  0  0  0
   -7.9020   15.1370   -0.6810 O   0  0  0  0  0  0  0  0  0  0  0  0
   -4.5230   15.2410    1.3820 C   0  0  0  0  0  0  0  0  0  0  0  0
   -6.9550   14.7530    1.3480 N   0  0  0  0  0  0  0  0  0  0  0  0
   -5.8450   14.9630    1.9790 C   0  0  0  0  0  0  0  0  0  0  0  0
  1  2  1  0
  2  3  1  0
  3  4  2  0
  3  5  1  0
  4  6  1  0
  4  7  1  0
  5  8  2  0
  8  9  1  0
  6 10  1  0
  7 11  2  0
  8 11  1  0
  9 12  1  0
 10 13  1  0
 12 14  2  0
 12 15  1  0
 13 16  1  0
 16 17  1  0
 16 18  2  0
 19 18  1  6
 17 20  2  0
 19 21  1  0
 19 22  1  0
 20 22  1  0
 21 23  2  0
 22 24  2  0
 21 25  1  0
 24 26  1  0
 25 26  2  0
M  END
