mac-x0282-mac-x0333
     RDKit          3D

 14 16  0  0  0  0  0  0  0  0999 V2000
   -3.6580   14.5170   -2.3670 O   0  0  0  0  0  0  0  0  0  0  0  0
   -3.5890   15.2200   -1.1320 C   0  0  1  0  0  0  0  0  0  0  0  0
   -4.5950   14.8160    0.0040 C   0  0  1  0  0  0  0  0  0  0  0  0
   -2.3020   14.9000   -0.4540 C   0  0  0  0  0  0  0  0  0  0  0  0
   -2.5150   14.7880    0.9100 C   0  0  0  0  0  0  0  0  0  0  0  0
   -3.8650   14.9850    1.2710 N   0  0  0  0  0  0  0  0  0  0  0  0
   -1.0330   14.7270   -0.9820 C   0  0  0  0  0  0  0  0  0  0  0  0
   -5.7280   15.6830    0.0750 O   0  0  0  0  0  0  0  0  0  0  0  0
   -5.2260   13.4590   -0.2450 C   0  0  0  0  0  0  0  0  0  0  0  0
   -0.0070   14.4480   -0.0880 C   0  0  0  0  0  0  0  0  0  0  0  0
   -1.5510   14.5240    1.7870 N   0  0  0  0  0  0  0  0  0  0  0  0
   -6.5140   13.7390   -0.8140 O   0  0  0  0  0  0  0  0  0  0  0  0
   -6.8900   14.8750   -0.0830 C   0  0  0  0  0  0  0  0  0  0  0  0
   -0.3200   14.3590    1.2690 C   0  0  0  0  0  0  0  0  0  0  0  0
  2  1  1  6
  2  3  1  0
  2  4  1  0
  4  5  2  0
  3  6  1  0
  5  6  1  0
  4  7  1  0
  3  8  1  0
  3  9  1  6
  7 10  2  0
  5 11  1  0
  9 12  1  0
  8 13  1  0
 12 13  1  0
 10 14  1  0
 11 14  2  0
M  END
