mac-x0226-mac-x0319
     RDKit          3D

 22 24  0  0  0  0  0  0  0  0999 V2000
    0.8330   10.7610   -2.0850 O   0  0  0  0  0  0  0  0  0  0  0  0
    0.2450   11.7750   -2.8440 C   0  0  0  0  0  0  0  0  0  0  0  0
   -1.1040   11.6450   -2.4600 O   0  0  0  0  0  0  0  0  0  0  0  0
    0.8780   13.1100   -2.4740 C   0  0  0  0  0  0  0  0  0  0  0  0
    0.4840   11.6960   -4.3020 C   0  0  0  0  0  0  0  0  0  0  0  0
    1.4310   12.4730   -5.0070 C   0  0  0  0  0  0  0  0  0  0  0  0
   -0.0990   10.9260   -5.2690 C   0  0  0  0  0  0  0  0  0  0  0  0
    0.3550   14.2270   -3.3430 C   0  0  0  0  0  0  0  0  0  0  0  0
    1.4510   12.2160   -6.3000 N   0  0  0  0  0  0  0  0  0  0  0  0
    0.5040   11.2570   -6.4570 N   0  0  0  0  0  0  0  0  0  0  0  0
    1.1140   15.3660   -3.6180 C   0  0  0  0  0  0  0  0  0  0  0  0
   -0.9390   14.1140   -3.8800 C   0  0  0  0  0  0  0  0  0  0  0  0
    0.2430   10.7230   -7.7250 C   0  0  0  0  0  0  0  0  0  0  0  0
    0.5680   16.3730   -4.4080 C   0  0  0  0  0  0  0  0  0  0  0  0
   -1.4670   15.1280   -4.6700 C   0  0  0  0  0  0  0  0  0  0  0  0
    1.2420   17.5090   -4.7020 O   0  0  0  0  0  0  0  0  0  0  0  0
   -0.9700   10.0680   -7.9400 C   0  0  0  0  0  0  0  0  0  0  0  0
    1.1740   10.8370   -8.7580 C   0  0  0  0  0  0  0  0  0  0  0  0
   -0.7110   16.2600   -4.9320 C   0  0  0  0  0  0  0  0  0  0  0  0
   -1.2570    9.5310   -9.1900 C   0  0  0  0  0  0  0  0  0  0  0  0
    0.8840   10.3000  -10.0090 C   0  0  0  0  0  0  0  0  0  0  0  0
   -0.3300    9.6480  -10.2250 C   0  0  0  0  0  0  0  0  0  0  0  0
  2  1  1  0
  2  3  1  0
  2  4  1  0
  2  5  1  0
  5  6  1  0
  5  7  2  0
  4  8  1  0
  6  9  2  0
  7 10  1  0
  9 10  1  0
  8 11  2  0
  8 12  1  0
 10 13  1  0
 11 14  1  0
 12 15  2  0
 14 16  1  0
 13 17  2  0
 13 18  1  0
 14 19  2  0
 15 19  1  0
 17 20  1  0
 18 21  2  0
 20 22  2  0
 21 22  1  0
M  END
