mac-x0124-mac-x0161
     RDKit          3D

 18 20  0  0  0  0  0  0  0  0999 V2000
   -0.3250   14.7620   -3.2360 C   0  0  0  0  0  0  0  0  0  0  0  0
   -1.4320   14.8680   -2.3190 N   0  0  0  0  0  0  0  0  0  0  0  0
   -2.7460   15.0500   -2.6860 C   0  0  0  0  0  0  0  0  0  0  0  0
   -0.2980   13.3610   -3.6490 C   0  0  0  0  0  0  0  0  0  0  0  0
   -1.3270   14.7990   -0.9530 C   0  0  0  0  0  0  0  0  0  0  0  0
   -0.7150   12.6620   -4.7530 C   0  0  0  0  0  0  0  0  0  0  0  0
    0.2580   12.5080   -2.7520 O   0  0  0  0  0  0  0  0  0  0  0  0
   -3.4950   15.1060   -1.5320 C   0  0  0  0  0  0  0  0  0  0  0  0
   -2.6050   14.9470   -0.4360 C   0  0  0  0  0  0  0  0  0  0  0  0
   -0.1920   14.6250   -0.2550 N   0  0  0  0  0  0  0  0  0  0  0  0
    0.2080   11.2220   -3.2470 N   0  0  0  0  0  0  0  0  0  0  0  0
   -0.3740   11.3390   -4.4440 C   0  0  0  0  0  0  0  0  0  0  0  0
   -0.5950   10.2680   -5.2290 O   0  0  0  0  0  0  0  0  0  0  0  0
   -2.7240   14.9170    0.9520 C   0  0  0  0  0  0  0  0  0  0  0  0
   -0.4380   14.6000    1.0710 C   0  0  0  0  0  0  0  0  0  0  0  0
   -3.9400   15.0820    1.5820 N   0  0  0  0  0  0  0  0  0  0  0  0
   -1.8210   10.3170   -5.9460 C   0  0  0  0  0  0  0  0  0  0  0  0
   -1.6210   14.7280    1.7030 N   0  0  0  0  0  0  0  0  0  0  0  0
  1  2  1  0
  2  3  1  0
  1  4  1  0
  2  5  1  0
  4  6  2  0
  4  7  1  0
  3  8  2  0
  5  9  2  0
  8  9  1  0
  5 10  1  0
  7 11  1  0
  6 12  1  0
 11 12  2  0
 12 13  1  0
  9 14  1  0
 10 15  2  0
 14 16  1  0
 13 17  1  0
 14 18  2  0
 15 18  1  0
M  END
