mac-x0161-mac-x0337
     RDKit          3D

 28 31  0  0  0  0  0  0  0  0999 V2000
   -4.3420   14.9860    0.3390 N   0  0  0  0  0  0  0  0  0  0  0  0
   -5.4650   14.8210   -0.8470 S   0  0  0  0  0  0  0  0  0  0  0  0
   -6.7500   15.1160   -0.3180 O   0  0  0  0  0  0  0  0  0  0  0  0
   -3.0810   14.9430   -0.3040 C   0  0  1  0  0  0  0  0  0  0  0  0
   -4.9260   15.5560   -1.9550 O   0  0  0  0  0  0  0  0  0  0  0  0
   -3.2040   15.7600   -1.4770 N   0  0  0  0  0  0  0  0  0  0  0  0
   -1.9020   15.3360    0.5380 C   0  0  2  0  0  0  0  0  0  0  0  0
   -5.3700   13.1040   -1.2770 C   0  0  0  0  0  0  0  0  0  0  0  0
   -2.1450   15.5720   -2.4210 C   0  0  0  0  0  0  0  0  0  0  0  0
   -0.7660   15.4900   -0.4660 C   0  0  2  0  0  0  0  0  0  0  0  0
   -1.4830   14.3690    1.5410 N   0  0  0  0  0  0  0  0  0  0  0  0
   -4.3480   12.6180   -2.1050 C   0  0  0  0  0  0  0  0  0  0  0  0
   -6.3440   12.2490   -0.7750 C   0  0  0  0  0  0  0  0  0  0  0  0
   -1.0300   14.8840   -1.7820 N   0  0  0  0  0  0  0  0  0  0  0  0
    0.3870   14.9600    0.2110 N   0  0  0  0  0  0  0  0  0  0  0  0
   -0.0670   14.2060    1.3660 C   0  0  0  0  0  0  0  0  0  0  0  0
   -4.3190   11.2590   -2.4330 C   0  0  0  0  0  0  0  0  0  0  0  0
   -6.3090   10.9000   -1.1060 C   0  0  0  0  0  0  0  0  0  0  0  0
    0.0590   14.6190   -2.7370 C   0  0  0  0  0  0  0  0  0  0  0  0
   -5.3030   10.3940   -1.9380 C   0  0  0  0  0  0  0  0  0  0  0  0
   -5.2840    8.9340   -2.2920 C   0  0  0  0  0  0  0  0  0  0  0  0
   -0.0850   13.2500   -3.3080 C   0  0  0  0  0  0  0  0  0  0  0  0
   -0.5030   12.7350   -4.5210 C   0  0  0  0  0  0  0  0  0  0  0  0
    0.2600   12.2180   -2.4820 O   0  0  0  0  0  0  0  0  0  0  0  0
    0.0700   11.0190   -3.1430 N   0  0  0  0  0  0  0  0  0  0  0  0
   -0.3810   11.3500   -4.3510 C   0  0  0  0  0  0  0  0  0  0  0  0
   -0.6720   10.4010   -5.2710 O   0  0  0  0  0  0  0  0  0  0  0  0
   -1.9310   10.5620   -5.9100 C   0  0  0  0  0  0  0  0  0  0  0  0
  2  1  1  0
  2  3  2  0
  4  1  1  1
  2  5  2  0
  4  6  1  0
  4  7  1  0
  2  8  1  0
  6  9  1  0
  7 10  1  0
  7 11  1  1
  8 12  2  0
  8 13  1  0
  9 14  1  0
 10 14  1  0
 10 15  1  1
 11 16  1  0
 15 16  1  0
 12 17  1  0
 13 18  2  0
 14 19  1  0
 17 20  2  0
 18 20  1  0
 20 21  1  0
 19 22  1  0
 22 23  2  0
 22 24  1  0
 24 25  1  0
 23 26  1  0
 25 26  2  0
 26 27  1  0
 27 28  1  0
M  END
