mac-x0115-diamond-x0895_0_A
     RDKit          3D

 23 25  0  0  0  0  0  0  0  0999 V2000
   -1.4190   18.6200   -5.1510 C   0  0  0  0  0  0  0  0  0  0  0  0
   -0.4170   17.6860   -5.8030 C   0  0  0  0  0  0  0  0  0  0  0  0
    1.0030   18.2010   -5.6290 C   0  0  0  0  0  0  0  0  0  0  0  0
   -0.4800   16.3910   -5.2030 O   0  0  0  0  0  0  0  0  0  0  0  0
    0.7770   15.8040   -4.8620 C   0  0  0  0  0  0  0  0  0  0  0  0
    0.6430   14.4740   -4.1070 C   0  0  0  0  0  0  0  0  0  0  0  0
    0.2560   14.6500   -2.6900 N   0  0  0  0  0  0  0  0  0  0  0  0
    1.1380   14.3510   -1.6330 C   0  0  0  0  0  0  0  0  0  0  0  0
   -1.0240   15.0700   -2.4030 C   0  0  0  0  0  0  0  0  0  0  0  0
    2.7600   13.9670   -1.8100 S   0  0  0  0  0  0  0  0  0  0  0  0
    0.6140   14.3800   -0.3470 N   0  0  0  0  0  0  0  0  0  0  0  0
   -1.4440   15.1640   -1.0440 C   0  0  0  0  0  0  0  0  0  0  0  0
   -2.0260   15.4120   -3.2130 C   0  0  0  0  0  0  0  0  0  0  0  0
   -0.6520   14.8090   -0.0340 C   0  0  0  0  0  0  0  0  0  0  0  0
   -2.7330   15.6240   -1.0100 N   0  0  0  0  0  0  0  0  0  0  0  0
   -3.0610   15.7390   -2.2490 C   0  0  0  0  0  0  0  0  0  0  0  0
   -1.1190   14.8550    1.2470 N   0  0  0  0  0  0  0  0  0  0  0  0
   -2.3940   14.6810    1.1190 C   0  0  0  0  0  0  0  0  0  0  0  0
   -3.5640   14.6460    2.0310 C   0  0  0  0  0  0  0  0  0  0  0  0
   -2.9310   14.4500   -0.1050 N   0  0  0  0  0  0  0  0  0  0  0  0
   -4.5570   15.2040    1.1510 N   0  0  0  0  0  0  0  0  0  0  0  0
   -4.2040   14.9320   -0.1410 C   0  0  0  0  0  0  0  0  0  0  0  0
   -4.9050   15.0920   -1.1240 O   0  0  0  0  0  0  0  0  0  0  0  0
  1  2  1  0
  2  3  1  0
  2  4  1  0
  4  5  1  0
  5  6  1  0
  6  7  1  0
  7  8  1  0
  7  9  1  0
  8 10  2  0
  8 11  1  0
  9 12  1  0
  9 13  2  0
 11 14  1  0
 12 14  2  0
 12 15  1  0
 13 16  1  0
 15 16  2  0
 14 17  1  0
 17 18  2  3
 18 19  1  0
 18 20  1  0
 19 21  1  0
 20 22  1  0
 21 22  1  0
 22 23  2  0
M  END
