mac-x0555-mac-x0116
     RDKit          3D

 22 25  0  0  0  0  0  0  0  0999 V2000
   -7.2470   11.1830    0.8520 N   0  0  0  0  0  0  0  0  0  0  0  0
   -6.5730   12.1370    0.0770 C   0  0  0  0  0  0  0  0  0  0  0  0
   -7.1920   12.7510   -1.0030 C   0  0  0  0  0  0  0  0  0  0  0  0
   -5.2500   12.5110    0.3620 C   0  0  0  0  0  0  0  0  0  0  0  0
   -4.5960   13.4720   -0.4200 C   0  0  0  0  0  0  0  0  0  0  0  0
   -6.6130   13.6720   -1.7960 N   0  0  0  0  0  0  0  0  0  0  0  0
   -5.3420   14.0060   -1.4890 C   0  0  0  0  0  0  0  0  0  0  0  0
   -3.1560   14.0220   -0.2320 C   0  0  2  0  0  0  0  0  0  0  0  0
   -4.7240   14.9910   -2.3530 C   0  0  0  0  0  0  0  0  0  0  0  0
   -3.3690   15.5570   -0.4070 C   0  0  2  0  0  0  0  0  0  0  0  0
   -2.1230   13.4710   -1.2290 C   0  0  0  0  0  0  0  0  0  0  0  0
   -2.4360   13.8330    1.0390 N   0  0  0  0  0  0  0  0  0  0  0  0
   -4.4600   16.0480    0.4670 N   0  0  0  0  0  0  0  0  0  0  0  0
   -3.7540   15.7400   -1.8480 C   0  0  0  0  0  0  0  0  0  0  0  0
   -0.8190   13.9040   -0.6560 N   0  0  0  0  0  0  0  0  0  0  0  0
   -1.0460   14.1660    0.7710 C   0  0  0  0  0  0  0  0  0  0  0  0
   -4.4180   15.4640    1.8230 C   0  0  0  0  0  0  0  0  0  0  0  0
   -5.4260   14.3730    2.0530 C   0  0  0  0  0  0  0  0  0  0  0  0
   -4.9270   13.1030    2.1520 O   0  0  0  0  0  0  0  0  0  0  0  0
   -6.7970   14.3360    2.2100 C   0  0  0  0  0  0  0  0  0  0  0  0
   -7.1510   12.9820    2.4230 C   0  0  0  0  0  0  0  0  0  0  0  0
   -5.9780   12.2770    2.3800 C   0  0  0  0  0  0  0  0  0  0  0  0
  1  2  1  0
  2  3  2  0
  2  4  1  0
  4  5  2  0
  3  6  1  0
  5  7  1  0
  6  7  2  0
  5  8  1  0
  7  9  1  0
  8 10  1  0
  8 11  1  6
  8 12  1  0
 10 13  1  1
  9 14  2  0
 10 14  1  0
 11 15  1  0
 12 16  1  0
 15 16  1  0
 13 17  1  0
 17 18  1  0
 18 19  1  0
 18 20  2  0
 20 21  1  0
 19 22  1  0
 21 22  2  0
M  END
