mac-x0555-diamond-x0766_0_A
     RDKit          3D

 23 26  0  0  0  0  0  0  0  0999 V2000
   -7.6050   13.9190    2.8550 N   0  0  0  0  0  0  0  0  0  0  0  0
   -7.0800   14.2450    1.6080 C   0  0  0  0  0  0  0  0  0  0  0  0
   -7.8420   14.8310    0.6050 C   0  0  0  0  0  0  0  0  0  0  0  0
   -5.7470   13.9850    1.3170 C   0  0  0  0  0  0  0  0  0  0  0  0
   -5.2230   14.3180    0.0730 C   0  0  0  0  0  0  0  0  0  0  0  0
   -7.3730   15.1770   -0.6100 N   0  0  0  0  0  0  0  0  0  0  0  0
   -6.0740   14.9230   -0.8450 C   0  0  0  0  0  0  0  0  0  0  0  0
   -3.7890   14.0310   -0.2680 C   0  0  0  0  0  0  0  0  0  0  0  0
   -5.5900   15.3360   -2.1410 C   0  0  0  0  0  0  0  0  0  0  0  0
   -3.2260   14.8490   -1.4490 C   0  0  2  0  0  0  0  0  0  0  0  0
   -4.2850   15.3230   -2.4210 C   0  0  0  0  0  0  0  0  0  0  0  0
   -2.1650   14.0980   -2.2930 C   0  0  0  0  0  0  0  0  0  0  0  0
   -2.4110   15.9030   -0.7980 C   0  0  0  0  0  0  0  0  0  0  0  0
   -0.7830   14.5470   -1.7660 C   0  0  2  0  0  0  0  0  0  0  0  0
   -1.1100   15.7470   -0.9610 C   0  0  0  0  0  0  0  0  0  0  0  0
    0.3870   14.6640   -2.7690 C   0  0  1  0  0  0  0  0  0  0  0  0
    1.0850   13.3730   -3.2320 C   0  0  1  0  0  0  0  0  0  0  0  0
    0.0880   15.4030   -4.0740 C   0  0  0  0  0  0  0  0  0  0  0  0
    0.5790   12.1810   -2.4910 C   0  0  0  0  0  0  0  0  0  0  0  0
    1.1340   13.3830   -4.7530 C   0  0  0  0  0  0  0  0  0  0  0  0
    1.1450   14.8770   -5.0140 C   0  0  0  0  0  0  0  0  0  0  0  0
    0.5280   12.1430   -1.2870 O   0  0  0  0  0  0  0  0  0  0  0  0
    0.1580   11.1460   -3.2370 O   0  0  0  0  0  0  0  0  0  0  0  0
  1  2  1  0
  2  3  2  0
  2  4  1  0
  4  5  2  0
  3  6  1  0
  5  7  1  0
  6  7  2  0
  5  8  1  0
  7  9  1  0
 10  8  1  1
  9 11  2  0
 10 11  1  0
 10 12  1  0
 10 13  1  0
 14 12  1  6
 13 15  2  0
 14 15  1  0
 14 16  1  0
 16 17  1  0
 16 18  1  6
 17 19  1  6
 17 20  1  0
 18 21  1  0
 20 21  1  0
 19 22  2  0
 19 23  1  0
M  END
