mac-x0226-mac-x0397
     RDKit          3D

 28 31  0  0  0  0  0  0  0  0999 V2000
    1.5870   12.3340   -2.0280 O   0  0  0  0  0  0  0  0  0  0  0  0
    0.4350   11.8360   -2.6560 C   0  0  0  0  0  0  0  0  0  0  0  0
    0.2430   10.5060   -2.1880 O   0  0  0  0  0  0  0  0  0  0  0  0
   -0.7250   12.6970   -2.1780 C   0  0  0  0  0  0  0  0  0  0  0  0
    0.6350   11.8440   -4.1380 C   0  0  0  0  0  0  0  0  0  0  0  0
   -0.4720   14.1800   -2.4520 C   0  0  0  0  0  0  0  0  0  0  0  0
    1.4900   12.6820   -4.8870 C   0  0  0  0  0  0  0  0  0  0  0  0
    0.0480   11.0410   -5.0930 C   0  0  0  0  0  0  0  0  0  0  0  0
   -1.6960   14.8040   -3.0920 C   0  0  0  0  0  0  0  0  0  0  0  0
    1.4510   12.4230   -6.1910 N   0  0  0  0  0  0  0  0  0  0  0  0
    0.5630   11.4040   -6.3140 N   0  0  0  0  0  0  0  0  0  0  0  0
    0.2680   10.8400   -7.5820 C   0  0  0  0  0  0  0  0  0  0  0  0
   -2.8490   14.8570   -2.1250 C   0  0  0  0  0  0  0  0  0  0  0  0
   -0.9680   10.2200   -7.7860 C   0  0  0  0  0  0  0  0  0  0  0  0
    1.1970   10.8930   -8.6220 C   0  0  0  0  0  0  0  0  0  0  0  0
   -4.1340   15.0540   -2.6160 C   0  0  0  0  0  0  0  0  0  0  0  0
   -2.6410   14.7030   -0.7360 C   0  0  0  0  0  0  0  0  0  0  0  0
   -1.2720    9.6580   -9.0270 C   0  0  0  0  0  0  0  0  0  0  0  0
    0.8880   10.3330   -9.8640 C   0  0  0  0  0  0  0  0  0  0  0  0
   -3.7540   14.7490    0.1210 C   0  0  0  0  0  0  0  0  0  0  0  0
   -5.2020   15.0920   -1.7360 C   0  0  0  0  0  0  0  0  0  0  0  0
   -6.8100   15.3180   -2.2510 Cl  0  0  0  0  0  0  0  0  0  0  0  0
   -0.3450    9.7170  -10.0640 C   0  0  0  0  0  0  0  0  0  0  0  0
   -5.0420   14.9410   -0.3640 C   0  0  0  0  0  0  0  0  0  0  0  0
   -3.8380   14.5990    1.8250 S   0  0  0  0  0  0  0  0  0  0  0  0
   -5.5460   14.7960    1.7680 C   0  0  0  0  0  0  0  0  0  0  0  0
   -6.0380   14.9570    0.5850 N   0  0  0  0  0  0  0  0  0  0  0  0
   -6.3490   14.7940    2.8480 N   0  0  0  0  0  0  0  0  0  0  0  0
  2  1  1  0
  2  3  1  0
  2  4  1  0
  2  5  1  0
  4  6  1  0
  5  7  1  0
  5  8  2  0
  6  9  1  0
  7 10  2  0
  8 11  1  0
 10 11  1  0
 11 12  1  0
  9 13  1  0
 12 14  2  0
 12 15  1  0
 13 16  2  0
 13 17  1  0
 14 18  1  0
 15 19  2  0
 17 20  2  0
 16 21  1  0
 21 22  1  0
 18 23  2  0
 19 23  1  0
 20 24  1  0
 21 24  2  0
 20 25  1  0
 25 26  1  0
 24 27  1  0
 26 27  2  0
 26 28  1  0
M  END
