mac-x0190-mac-x0345
     RDKit          3D

 13 14  0  0  0  0  0  0  0  0999 V2000
   -9.1650   15.0480    2.4450 O   0  0  0  0  0  0  0  0  0  0  0  0
   -9.0500   14.1650    1.3380 C   0  0  0  0  0  0  0  0  0  0  0  0
   -7.7300   14.4160    0.7080 C   0  0  0  0  0  0  0  0  0  0  0  0
   -7.5980   14.5900   -0.6440 N   0  0  0  0  0  0  0  0  0  0  0  0
   -6.5660   14.5030    1.3040 N   0  0  0  0  0  0  0  0  0  0  0  0
   -6.2740   14.8040   -0.9320 C   0  0  0  0  0  0  0  0  0  0  0  0
   -5.6560   14.7460    0.2960 C   0  0  0  0  0  0  0  0  0  0  0  0
   -5.5850   15.0330   -2.1230 C   0  0  0  0  0  0  0  0  0  0  0  0
   -4.2830   14.9260    0.3380 C   0  0  0  0  0  0  0  0  0  0  0  0
   -6.2030   15.0650   -3.3660 N   0  0  0  0  0  0  0  0  0  0  0  0
   -3.4110   14.8300    1.9470 Br  0  0  0  0  0  0  0  0  0  0  0  0
   -4.1980   15.2220   -2.0280 C   0  0  0  0  0  0  0  0  0  0  0  0
   -3.5490   15.1680   -0.8080 C   0  0  0  0  0  0  0  0  0  0  0  0
  1  2  1  0
  2  3  1  0
  3  4  1  0
  3  5  2  0
  4  6  1  0
  5  7  1  0
  6  7  2  0
  6  8  1  0
  7  9  1  0
  8 10  1  0
  9 11  1  0
  8 12  2  0
  9 13  2  0
 12 13  1  0
M  END
