mac-x0437-mac-x0546
     RDKit          3D

 25 28  0  0  0  0  0  0  0  0999 V2000
    1.3730   12.6480   -1.7210 O   0  0  0  0  0  0  0  0  0  0  0  0
    1.0040   11.7270   -2.6200 C   0  0  0  0  0  0  0  0  0  0  0  0
    0.5530   10.6270   -2.3030 O   0  0  0  0  0  0  0  0  0  0  0  0
    1.2050   12.2590   -3.9820 C   0  0  0  0  0  0  0  0  0  0  0  0
   -0.0800   12.8730   -4.3650 C   0  0  2  0  0  0  0  0  0  0  0  0
   -0.8010   11.8900   -5.2050 N   0  0  0  0  0  0  0  0  0  0  0  0
    0.2040   14.2790   -4.6520 C   0  0  0  0  0  0  0  0  0  0  0  0
   -2.0920   11.5680   -4.9080 C   0  0  0  0  0  0  0  0  0  0  0  0
   -0.4230   11.1230   -6.3090 C   0  0  0  0  0  0  0  0  0  0  0  0
   -0.7630   15.3500   -4.4380 C   0  0  2  0  0  0  0  0  0  0  0  0
    1.3330   14.7890   -5.0560 C   0  0  0  0  0  0  0  0  0  0  0  0
   -2.5770   10.6590   -5.7060 N   0  0  0  0  0  0  0  0  0  0  0  0
   -1.5650   10.3600   -6.5740 C   0  0  0  0  0  0  0  0  0  0  0  0
    0.7370   10.9820   -7.0960 C   0  0  0  0  0  0  0  0  0  0  0  0
   -2.0430   15.3500   -5.1350 C   0  0  0  0  0  0  0  0  0  0  0  0
    0.1120   16.4640   -4.9490 C   0  0  0  0  0  0  0  0  0  0  0  0
    1.3160   16.1430   -5.2560 N   0  0  0  0  0  0  0  0  0  0  0  0
   -1.5750    9.4290   -7.6170 C   0  0  0  0  0  0  0  0  0  0  0  0
    0.7030   10.0420   -8.1390 C   0  0  0  0  0  0  0  0  0  0  0  0
   -2.5270   16.5040   -5.5630 C   0  0  0  0  0  0  0  0  0  0  0  0
   -0.4780   17.7910   -5.0460 C   0  0  0  0  0  0  0  0  0  0  0  0
   -3.7060   16.6170   -6.2110 O   0  0  0  0  0  0  0  0  0  0  0  0
   -0.4290    9.2740   -8.3970 C   0  0  0  0  0  0  0  0  0  0  0  0
   -1.7910   17.7600   -5.3560 C   0  0  0  0  0  0  0  0  0  0  0  0
   -4.5230   15.4450   -6.1950 C   0  0  0  0  0  0  0  0  0  0  0  0
  1  2  1  0
  2  3  2  0
  2  4  1  0
  5  4  1  6
  5  6  1  0
  5  7  1  0
  6  8  1  0
  6  9  1  0
  7 10  1  0
  7 11  2  0
  8 12  2  0
  9 13  2  0
 12 13  1  0
  9 14  1  0
 10 15  1  6
 10 16  1  0
 11 17  1  0
 16 17  2  0
 13 18  1  0
 14 19  2  0
 15 20  2  0
 16 21  1  0
 20 22  1  0
 18 23  2  0
 19 23  1  0
 20 24  1  0
 21 24  2  0
 22 25  1  0
M  END
