mac-x0415-mac-x0341
     RDKit          3D

 28 31  0  0  0  0  0  0  0  0999 V2000
    0.0740   11.1060   -2.7940 O   0  0  0  0  0  0  0  0  0  0  0  0
    0.7650   12.2600   -2.8670 C   0  0  0  0  0  0  0  0  0  0  0  0
    1.1170   12.8310   -1.8500 O   0  0  0  0  0  0  0  0  0  0  0  0
    1.0100   12.6770   -4.2980 C   0  0  0  0  0  0  0  0  0  0  0  0
    0.7850   14.1210   -4.5190 C   0  0  0  0  0  0  0  0  0  0  0  0
    1.7330   15.1920   -4.1830 C   0  0  0  0  0  0  0  0  0  0  0  0
   -0.2310   14.8410   -4.9950 C   0  0  0  0  0  0  0  0  0  0  0  0
    1.3870   16.4160   -4.4330 N   0  0  0  0  0  0  0  0  0  0  0  0
    0.0990   16.2940   -5.0810 C   0  0  2  0  0  0  0  0  0  0  0  0
   -1.5420   14.4270   -5.4500 C   0  0  0  0  0  0  0  0  0  0  0  0
   -1.0060   17.1210   -4.5810 C   0  0  0  0  0  0  0  0  0  0  0  0
   -2.5470   15.3340   -5.3140 C   0  0  0  0  0  0  0  0  0  0  0  0
   -3.8890   15.2210   -5.6790 O   0  0  0  0  0  0  0  0  0  0  0  0
   -2.2500   16.6310   -4.7140 C   0  0  0  0  0  0  0  0  0  0  0  0
   -4.9080   14.5730   -4.8720 C   0  0  0  0  0  0  0  0  0  0  0  0
   -4.7530   14.8310   -3.3660 C   0  0  0  0  0  0  0  0  0  0  0  0
   -5.9750   14.7800   -2.5250 N   0  0  0  0  0  0  0  0  0  0  0  0
   -5.7380   14.9310   -1.2580 C   0  0  0  0  0  0  0  0  0  0  0  0
   -6.5510   14.9160   -0.1350 N   0  0  0  0  0  0  0  0  0  0  0  0
   -4.3000   15.1470   -0.9360 C   0  0  0  0  0  0  0  0  0  0  0  0
   -6.0690   14.7320    1.1430 C   0  0  0  0  0  0  0  0  0  0  0  0
   -3.9110   15.0590    0.4020 C   0  0  0  0  0  0  0  0  0  0  0  0
   -3.3680   15.4250   -1.9390 C   0  0  0  0  0  0  0  0  0  0  0  0
   -6.9850   14.4850    2.1180 N   0  0  0  0  0  0  0  0  0  0  0  0
   -4.8120   14.7890    1.4460 N   0  0  0  0  0  0  0  0  0  0  0  0
   -2.5650   15.2470    0.7150 C   0  0  0  0  0  0  0  0  0  0  0  0
   -2.0350   15.6100   -1.6140 C   0  0  0  0  0  0  0  0  0  0  0  0
   -1.6290   15.5210   -0.2870 C   0  0  0  0  0  0  0  0  0  0  0  0
  1  2  1  0
  2  3  2  0
  2  4  1  0
  4  5  1  0
  5  6  1  0
  5  7  2  0
  6  8  2  0
  7  9  1  0
  8  9  1  0
  7 10  1  0
  9 11  1  1
 10 12  2  0
 12 13  1  0
 11 14  2  0
 12 14  1  0
 13 15  1  0
 15 16  1  0
 16 17  1  0
 17 18  2  3
 18 19  1  0
 18 20  1  0
 19 21  1  0
 20 22  2  0
 20 23  1  0
 21 24  1  0
 21 25  2  0
 22 25  1  0
 22 26  1  0
 23 27  2  0
 26 28  2  0
 27 28  1  0
M  END
