mac-x0188-mac-x0341
     RDKit          3D

 21 23  0  0  0  0  0  0  0  0999 V2000
    1.5630   13.3220   -4.8880 C   0  0  0  0  0  0  0  0  0  0  0  0
    0.2140   13.6590   -4.3800 C   0  0  0  0  0  0  0  0  0  0  0  0
   -0.7620   13.7450   -5.3130 O   0  0  0  0  0  0  0  0  0  0  0  0
   -0.3110   13.9190   -3.1210 C   0  0  0  0  0  0  0  0  0  0  0  0
    0.4510   13.9110   -1.9130 C   0  0  0  0  0  0  0  0  0  0  0  0
   -1.9420   14.0550   -4.6930 N   0  0  0  0  0  0  0  0  0  0  0  0
   -1.6890   14.1620   -3.3740 C   0  0  0  0  0  0  0  0  0  0  0  0
    0.9700   14.8980   -1.4210 O   0  0  0  0  0  0  0  0  0  0  0  0
    0.5890   12.6920   -1.3300 O   0  0  0  0  0  0  0  0  0  0  0  0
   -2.8460   14.4780   -2.5490 C   0  0  0  0  0  0  0  0  0  0  0  0
   -3.9550   14.7800   -3.3210 C   0  0  0  0  0  0  0  0  0  0  0  0
   -2.9360   14.4850   -1.1160 C   0  0  0  0  0  0  0  0  0  0  0  0
   -5.1440   15.0650   -2.7390 C   0  0  0  0  0  0  0  0  0  0  0  0
   -4.1980   14.7890   -0.5130 C   0  0  0  0  0  0  0  0  0  0  0  0
   -5.2440   15.0560   -1.3880 C   0  0  0  0  0  0  0  0  0  0  0  0
   -4.4620   14.8240    0.8910 N   0  0  0  0  0  0  0  0  0  0  0  0
   -5.7390   14.8450    1.2480 C   0  0  0  0  0  0  0  0  0  0  0  0
   -6.5500   15.3310   -0.8730 C   0  0  0  0  0  0  0  0  0  0  0  0
   -6.1680   14.9250    2.5260 N   0  0  0  0  0  0  0  0  0  0  0  0
   -7.3830   15.9370   -1.5080 O   0  0  0  0  0  0  0  0  0  0  0  0
   -6.7460   14.8170    0.3540 N   0  0  0  0  0  0  0  0  0  0  0  0
  1  2  1  0
  2  3  1  0
  2  4  2  0
  4  5  1  0
  3  6  1  0
  4  7  1  0
  6  7  2  0
  5  8  2  0
  5  9  1  0
  7 10  1  0
 10 11  2  0
 10 12  1  0
 11 13  1  0
 12 14  2  0
 13 15  2  0
 14 15  1  0
 14 16  1  0
 16 17  2  0
 15 18  1  0
 17 19  1  0
 18 20  2  0
 17 21  1  0
 18 21  1  0
M  END
