mac-x0139-mac-x0361
     RDKit          3D

 25 27  0  0  0  0  0  0  0  0999 V2000
   -2.2450   14.2900   -3.2280 C   0  0  0  0  0  0  0  0  0  0  0  0
   -1.0830   14.5970   -2.3670 N   0  0  0  0  0  0  0  0  0  0  0  0
    0.2100   14.7800   -3.0710 C   0  0  0  0  0  0  0  0  0  0  0  0
   -3.5020   14.3200   -2.3780 C   0  0  0  0  0  0  0  0  0  0  0  0
   -1.2000   14.5670   -0.9530 C   0  0  0  0  0  0  0  0  0  0  0  0
   -3.5140   13.5840   -1.1820 C   0  0  0  0  0  0  0  0  0  0  0  0
   -4.6460   15.0500   -2.7120 C   0  0  0  0  0  0  0  0  0  0  0  0
    0.5550   13.5530   -3.9130 C   0  0  0  0  0  0  0  0  0  0  0  0
   -2.3310   14.9980   -0.3500 C   0  0  0  0  0  0  0  0  0  0  0  0
   -0.1380   14.0750   -0.1680 N   0  0  0  0  0  0  0  0  0  0  0  0
   -4.6250   13.5870   -0.3310 C   0  0  0  0  0  0  0  0  0  0  0  0
   -5.7710   15.0640   -1.8660 C   0  0  0  0  0  0  0  0  0  0  0  0
    1.1700   12.4870   -3.0550 C   0  0  0  0  0  0  0  0  0  0  0  0
   -2.4430   14.9360    1.1130 C   0  0  0  0  0  0  0  0  0  0  0  0
   -0.3130   14.0550    1.1320 C   0  0  0  0  0  0  0  0  0  0  0  0
   -3.5830   15.5590   -0.7300 C   0  0  0  0  0  0  0  0  0  0  0  0
   -5.7610   14.3340   -0.6620 C   0  0  0  0  0  0  0  0  0  0  0  0
    2.1210   12.6870   -2.3250 O   0  0  0  0  0  0  0  0  0  0  0  0
    0.5810   11.2750   -3.1460 O   0  0  0  0  0  0  0  0  0  0  0  0
   -6.9490   14.3690    0.2390 C   0  0  0  0  0  0  0  0  0  0  0  0
   -1.4110   14.4590    1.8030 N   0  0  0  0  0  0  0  0  0  0  0  0
   -3.5830   15.3670    1.5440 N   0  0  0  0  0  0  0  0  0  0  0  0
   -4.2480   15.7410    0.4020 C   0  0  0  0  0  0  0  0  0  0  0  0
   -6.7560   14.6290    1.5830 N   0  0  0  0  0  0  0  0  0  0  0  0
   -8.0810   14.1850   -0.1900 O   0  0  0  0  0  0  0  0  0  0  0  0
  1  2  1  0
  2  3  1  0
  1  4  1  0
  2  5  1  0
  4  6  2  0
  4  7  1  0
  3  8  1  0
  5  9  2  0
  5 10  1  0
  6 11  1  0
  7 12  2  0
  8 13  1  0
  9 14  1  0
 10 15  2  0
  9 16  1  0
 11 17  2  0
 12 17  1  0
 13 18  2  0
 13 19  1  0
 17 20  1  0
 14 21  1  0
 15 21  1  0
 14 22  2  0
 16 23  2  0
 22 23  1  0
 20 24  1  0
 20 25  2  0
M  END
