mac-x0190-mac-x0380
     RDKit          3D

 14 15  0  0  0  0  0  0  0  0999 V2000
   -9.1110   15.0890    2.5150 O   0  0  0  0  0  0  0  0  0  0  0  0
   -9.0060   14.3910    1.2810 C   0  0  0  0  0  0  0  0  0  0  0  0
   -7.6170   14.5680    0.7920 C   0  0  0  0  0  0  0  0  0  0  0  0
   -7.3350   14.6520   -0.5460 N   0  0  0  0  0  0  0  0  0  0  0  0
   -6.5170   14.6670    1.5060 N   0  0  0  0  0  0  0  0  0  0  0  0
   -5.9820   14.8040   -0.6950 C   0  0  0  0  0  0  0  0  0  0  0  0
   -5.4910   14.8130    0.6060 C   0  0  0  0  0  0  0  0  0  0  0  0
   -5.1730   14.9270   -1.8250 C   0  0  0  0  0  0  0  0  0  0  0  0
   -4.1110   14.9580    0.8190 C   0  0  0  0  0  0  0  0  0  0  0  0
   -3.7930   15.0530   -1.5960 C   0  0  0  0  0  0  0  0  0  0  0  0
   -3.2670   15.0740   -0.2940 C   0  0  0  0  0  0  0  0  0  0  0  0
   -2.8610   15.1550   -2.7530 C   0  0  0  0  0  0  0  0  0  0  0  0
   -1.5730   14.9150   -2.4210 O   0  0  0  0  0  0  0  0  0  0  0  0
   -3.2200   15.4110   -3.8880 O   0  0  0  0  0  0  0  0  0  0  0  0
  1  2  1  0
  2  3  1  0
  3  4  1  0
  3  5  2  0
  4  6  1  0
  5  7  1  0
  6  7  2  0
  6  8  1  0
  7  9  1  0
  8 10  2  0
  9 11  2  0
 10 11  1  0
 10 12  1  0
 12 13  1  0
 12 14  2  0
M  END
