mac-x0346-diamond-x0837_0_A
     RDKit          3D

 11 11  0  0  0  0  0  0  0  0999 V2000
   -7.5450   14.0490    1.1770 O   0  0  0  0  0  0  0  0  0  0  0  0
   -7.6750   14.9840    0.1180 N   0  0  0  0  0  0  0  0  0  0  0  0
   -6.6670   15.0030   -0.8240 C   0  0  0  0  0  0  0  0  0  0  0  0
   -6.9130   14.9750   -2.0240 O   0  0  0  0  0  0  0  0  0  0  0  0
   -5.2730   15.0480   -0.3230 C   0  0  0  0  0  0  0  0  0  0  0  0
   -4.2150   15.0270   -1.2290 C   0  0  0  0  0  0  0  0  0  0  0  0
   -5.0040   15.1080    1.0540 C   0  0  0  0  0  0  0  0  0  0  0  0
   -4.4590   14.9750   -2.5700 O   0  0  0  0  0  0  0  0  0  0  0  0
   -2.9020   15.0570   -0.7740 C   0  0  0  0  0  0  0  0  0  0  0  0
   -3.6820   15.1430    1.5010 C   0  0  0  0  0  0  0  0  0  0  0  0
   -2.6350   15.1150    0.5940 C   0  0  0  0  0  0  0  0  0  0  0  0
  1  2  1  0
  2  3  1  0
  3  4  2  0
  3  5  1  0
  5  6  2  0
  5  7  1  0
  6  8  1  0
  6  9  1  0
  7 10  2  0
  9 11  2  0
 10 11  1  0
M  END
