mac-x0411-mac-x0138
     RDKit          3D

 26 28  0  0  0  0  0  0  0  0999 V2000
    0.6640    8.6920   -7.6660 Cl  0  0  0  0  0  0  0  0  0  0  0  0
   -0.6120    9.4770   -6.8050 C   0  0  0  0  0  0  0  0  0  0  0  0
   -0.5210   10.8010   -6.3020 C   0  0  0  0  0  0  0  0  0  0  0  0
   -1.7750    8.7290   -6.6280 C   0  0  0  0  0  0  0  0  0  0  0  0
    0.6320   11.5400   -6.4660 O   0  0  0  0  0  0  0  0  0  0  0  0
   -1.6400   11.3660   -5.6320 C   0  0  0  0  0  0  0  0  0  0  0  0
   -2.8650    9.2750   -5.9610 C   0  0  0  0  0  0  0  0  0  0  0  0
   -1.6850   12.7810   -5.0830 C   0  0  0  0  0  0  0  0  0  0  0  0
    1.0210   12.4660   -5.4290 C   0  0  0  0  0  0  0  0  0  0  0  0
   -2.7980   10.5760   -5.4730 C   0  0  0  0  0  0  0  0  0  0  0  0
    0.9400   11.8700   -4.0250 C   0  0  0  0  0  0  0  0  0  0  0  0
   -1.1900   13.0250   -3.6590 C   0  0  0  0  0  0  0  0  0  0  0  0
    1.5890   12.6100   -3.0980 O   0  0  0  0  0  0  0  0  0  0  0  0
    0.3810   10.8310   -3.6920 O   0  0  0  0  0  0  0  0  0  0  0  0
   -1.2170   14.4980   -3.2180 C   0  0  0  0  0  0  0  0  0  0  0  0
   -2.2100   14.7970   -2.2250 N   0  0  0  0  0  0  0  0  0  0  0  0
   -3.5000   15.2060   -2.4300 C   0  0  0  0  0  0  0  0  0  0  0  0
   -2.0040   14.7060   -0.8760 C   0  0  0  0  0  0  0  0  0  0  0  0
   -4.1440   15.3890   -1.2990 N   0  0  0  0  0  0  0  0  0  0  0  0
   -3.2150   15.0780   -0.3250 C   0  0  0  0  0  0  0  0  0  0  0  0
   -0.8820   14.3430   -0.2180 N   0  0  0  0  0  0  0  0  0  0  0  0
   -3.2750   15.0750    1.0680 C   0  0  0  0  0  0  0  0  0  0  0  0
   -1.0530   14.3690    1.1170 C   0  0  0  0  0  0  0  0  0  0  0  0
   -4.4230   15.4380    1.7600 N   0  0  0  0  0  0  0  0  0  0  0  0
    0.0020   14.0230    1.9490 N   0  0  0  0  0  0  0  0  0  0  0  0
   -2.1720   14.7060    1.7660 N   0  0  0  0  0  0  0  0  0  0  0  0
  1  2  1  0
  2  3  2  0
  2  4  1  0
  3  5  1  0
  3  6  1  0
  4  7  2  0
  6  8  1  0
  5  9  1  0
  6 10  2  0
  7 10  1  0
  9 11  1  0
  8 12  1  0
 11 13  1  0
 11 14  2  0
 12 15  1  0
 15 16  1  0
 16 17  1  0
 16 18  1  0
 17 19  2  0
 18 20  2  0
 19 20  1  0
 18 21  1  0
 20 22  1  0
 21 23  2  0
 22 24  1  0
 23 25  1  0
 22 26  2  0
 23 26  1  0
M  END
