mac-x0212-mac-x0455
     RDKit          3D

 23 24  0  0  0  0  0  0  0  0999 V2000
   -6.4400   12.8370    1.5260 C   0  0  0  0  0  0  0  0  0  0  0  0
   -6.8600   14.5470    1.2200 S   0  0  0  0  0  0  0  0  0  0  0  0
   -7.6880   15.0040    2.3160 O   0  0  0  0  0  0  0  0  0  0  0  0
   -7.3310   14.6640   -0.1440 O   0  0  0  0  0  0  0  0  0  0  0  0
   -5.3500   15.3070    1.3880 N   0  0  0  0  0  0  0  0  0  0  0  0
   -4.5450   15.0740    0.2550 C   0  0  0  0  0  0  0  0  0  0  0  0
   -3.4120   14.3130    0.4570 C   0  0  0  0  0  0  0  0  0  0  0  0
   -4.8780   15.5530   -1.0210 C   0  0  0  0  0  0  0  0  0  0  0  0
   -2.6200   13.9780   -0.6210 C   0  0  0  0  0  0  0  0  0  0  0  0
   -4.0750   15.2140   -2.1120 C   0  0  0  0  0  0  0  0  0  0  0  0
   -2.9590   14.4030   -1.9020 C   0  0  0  0  0  0  0  0  0  0  0  0
   -2.1500   13.9000   -2.9940 C   0  0  0  0  0  0  0  0  0  0  0  0
   -0.8540   13.6210   -3.1040 C   0  0  0  0  0  0  0  0  0  0  0  0
   -2.9570   13.6050   -4.0720 O   0  0  0  0  0  0  0  0  0  0  0  0
    0.1690   13.9050   -2.0750 C   0  0  0  0  0  0  0  0  0  0  0  0
   -0.5630   12.8680   -4.3270 C   0  0  0  0  0  0  0  0  0  0  0  0
    0.8600   14.9080   -2.0260 O   0  0  0  0  0  0  0  0  0  0  0  0
    0.2690   12.9130   -1.1630 O   0  0  0  0  0  0  0  0  0  0  0  0
   -1.5520   11.9020   -4.6130 C   0  0  0  0  0  0  0  0  0  0  0  0
    0.5300   12.9880   -5.1790 C   0  0  0  0  0  0  0  0  0  0  0  0
   -1.4670   11.0650   -5.7110 C   0  0  0  0  0  0  0  0  0  0  0  0
    0.6160   12.1360   -6.2910 C   0  0  0  0  0  0  0  0  0  0  0  0
   -0.3750   11.1830   -6.5540 C   0  0  0  0  0  0  0  0  0  0  0  0
  1  2  1  0
  2  3  2  0
  2  4  2  0
  2  5  1  0
  5  6  1  0
  6  7  2  0
  6  8  1  0
  7  9  1  0
  8 10  2  0
  9 11  2  0
 10 11  1  0
 11 12  1  0
 12 13  2  3
 12 14  1  0
 13 15  1  0
 13 16  1  0
 15 17  2  0
 15 18  1  0
 16 19  2  0
 16 20  1  0
 19 21  1  0
 20 22  2  0
 21 23  2  0
 22 23  1  0
M  END
