mac-x0412-diamond-x0471_0_A
     RDKit          3D

 18 19  0  0  0  0  0  0  0  0999 V2000
   -7.9510   15.0910   -0.8090 O   0  0  0  0  0  0  0  0  0  0  0  0
   -6.9710   14.9310   -0.0900 C   0  0  0  0  0  0  0  0  0  0  0  0
   -7.0550   14.6820    1.2680 N   0  0  0  0  0  0  0  0  0  0  0  0
   -5.5960   14.9970   -0.6500 C   0  0  0  0  0  0  0  0  0  0  0  0
   -8.2780   14.1050    1.7870 C   0  0  0  0  0  0  0  0  0  0  0  0
   -4.5020   15.0560    0.2240 C   0  0  0  0  0  0  0  0  0  0  0  0
   -5.9790   14.8930    2.1140 C   0  0  0  0  0  0  0  0  0  0  0  0
   -5.4020   14.9960   -2.0320 C   0  0  0  0  0  0  0  0  0  0  0  0
   -8.2660   14.1490    3.2200 N   0  0  0  0  0  0  0  0  0  0  0  0
   -4.7340   15.0710    1.6580 C   0  0  0  0  0  0  0  0  0  0  0  0
   -3.2100   15.1010   -0.2970 C   0  0  0  0  0  0  0  0  0  0  0  0
   -4.1080   15.0450   -2.5440 C   0  0  0  0  0  0  0  0  0  0  0  0
   -9.0150   15.1110    3.8490 C   0  0  0  0  0  0  0  0  0  0  0  0
   -3.0190   15.0930   -1.6800 C   0  0  0  0  0  0  0  0  0  0  0  0
   -9.4690   16.0840    3.2590 O   0  0  0  0  0  0  0  0  0  0  0  0
   -9.2560   14.8580    5.3350 C   0  0  0  0  0  0  0  0  0  0  0  0
   -9.6330   13.4040    5.6080 C   0  0  0  0  0  0  0  0  0  0  0  0
   -8.0540   15.2930    6.1580 C   0  0  0  0  0  0  0  0  0  0  0  0
  1  2  2  0
  2  3  1  0
  2  4  1  0
  3  5  1  0
  4  6  2  0
  3  7  1  0
  4  8  1  0
  5  9  1  0
  6 10  1  0
  7 10  2  0
  6 11  1  0
  8 12  2  0
  9 13  1  0
 11 14  2  0
 12 14  1  0
 13 15  2  0
 13 16  1  0
 16 17  1  0
 16 18  1  0
M  END
