mac-x0375-mac-x0124
     RDKit          3D

 24 26  0  0  0  0  0  0  0  0999 V2000
    1.5130   12.5270   -2.3610 O   0  0  0  0  0  0  0  0  0  0  0  0
    1.0170   11.9010   -3.4350 C   0  0  0  0  0  0  0  0  0  0  0  0
    0.4100   10.8540   -3.2850 O   0  0  0  0  0  0  0  0  0  0  0  0
    1.2760   12.5990   -4.7680 C   0  0  1  0  0  0  0  0  0  0  0  0
    0.5310   12.1810   -5.9290 O   0  0  0  0  0  0  0  0  0  0  0  0
    1.5020   14.1210   -4.5830 C   0  0  0  0  0  0  0  0  0  0  0  0
    0.7950   14.7350   -3.3520 C   0  0  0  0  0  0  0  0  0  0  0  0
   -0.3830   11.1570   -6.0310 C   0  0  0  0  0  0  0  0  0  0  0  0
   -0.7070   14.7980   -3.5820 C   0  0  0  0  0  0  0  0  0  0  0  0
   -0.2520    9.9780   -6.7680 C   0  0  0  0  0  0  0  0  0  0  0  0
   -1.5680   11.3550   -5.3120 C   0  0  0  0  0  0  0  0  0  0  0  0
   -1.2770    9.0210   -6.7860 C   0  0  0  0  0  0  0  0  0  0  0  0
   -2.5970   10.4040   -5.3270 C   0  0  0  0  0  0  0  0  0  0  0  0
   -1.6200   14.8800   -2.4440 N   0  0  0  0  0  0  0  0  0  0  0  0
   -2.4510    9.2350   -6.0650 C   0  0  0  0  0  0  0  0  0  0  0  0
   -2.9630   15.0670   -2.6690 C   0  0  0  0  0  0  0  0  0  0  0  0
   -1.3890   14.8080   -1.0730 C   0  0  0  0  0  0  0  0  0  0  0  0
   -3.6020   15.1230   -1.4620 C   0  0  0  0  0  0  0  0  0  0  0  0
   -2.6300   14.9630   -0.4490 C   0  0  0  0  0  0  0  0  0  0  0  0
   -0.2200   14.6330   -0.4270 N   0  0  0  0  0  0  0  0  0  0  0  0
   -2.6610   14.9380    0.9440 C   0  0  0  0  0  0  0  0  0  0  0  0
   -0.3880   14.6180    0.9150 C   0  0  0  0  0  0  0  0  0  0  0  0
   -3.8400   15.1100    1.6480 N   0  0  0  0  0  0  0  0  0  0  0  0
   -1.5210   14.7520    1.6250 N   0  0  0  0  0  0  0  0  0  0  0  0
  1  2  1  0
  2  3  2  0
  2  4  1  0
  4  5  1  0
  4  6  1  1
  6  7  1  0
  5  8  1  0
  7  9  1  0
  8 10  2  0
  8 11  1  0
 10 12  1  0
 11 13  2  0
  9 14  1  0
 12 15  2  0
 13 15  1  0
 14 16  1  0
 14 17  1  0
 16 18  2  0
 17 19  2  0
 18 19  1  0
 17 20  1  0
 19 21  1  0
 20 22  2  0
 21 23  1  0
 21 24  2  0
 22 24  1  0
M  END
