mac-x0124-diamond-x0626_0_A
     RDKit          3D

 15 16  0  0  0  0  0  0  0  0999 V2000
   -0.1270   14.7630   -3.1600 C   0  0  0  0  0  0  0  0  0  0  0  0
   -1.3270   14.8090   -2.3590 N   0  0  0  0  0  0  0  0  0  0  0  0
   -2.6060   14.9070   -2.8350 C   0  0  0  0  0  0  0  0  0  0  0  0
   -1.3440   14.7630   -0.9890 C   0  0  0  0  0  0  0  0  0  0  0  0
   -3.4620   14.9290   -1.7520 C   0  0  0  0  0  0  0  0  0  0  0  0
   -2.6760   14.8350   -0.5660 C   0  0  0  0  0  0  0  0  0  0  0  0
   -0.2510   14.6690   -0.2220 N   0  0  0  0  0  0  0  0  0  0  0  0
   -2.9010   14.8000    0.8300 C   0  0  0  0  0  0  0  0  0  0  0  0
   -0.5710   14.6440    1.0820 C   0  0  0  0  0  0  0  0  0  0  0  0
   -4.2250   14.8680    1.3540 N   0  0  0  0  0  0  0  0  0  0  0  0
   -1.8070   14.6960    1.6400 N   0  0  0  0  0  0  0  0  0  0  0  0
   -5.4840   14.7740    0.7660 C   0  0  0  0  0  0  0  0  0  0  0  0
   -5.6120   15.0120   -0.4390 O   0  0  0  0  0  0  0  0  0  0  0  0
   -6.7010   14.3740    1.6020 C   0  0  0  0  0  0  0  0  0  0  0  0
   -8.0350   14.5790    0.8810 C   0  0  0  0  0  0  0  0  0  0  0  0
  1  2  1  0
  2  3  1  0
  2  4  1  0
  3  5  2  0
  4  6  2  0
  5  6  1  0
  4  7  1  0
  6  8  1  0
  7  9  2  0
  8 10  1  0
  8 11  2  0
  9 11  1  0
 10 12  1  0
 12 13  2  0
 12 14  1  0
 14 15  1  0
M  END
