mac-x0138-mac-x0361
     RDKit          3D

 14 16  0  0  0  0  0  0  0  0999 V2000
   -1.9150   15.2890   -3.5860 C   0  0  0  0  0  0  0  0  0  0  0  0
   -2.5050   14.7320   -2.3750 N   0  0  0  0  0  0  0  0  0  0  0  0
   -4.0120   14.9620   -2.2870 C   0  0  0  0  0  0  0  0  0  0  0  0
   -1.9410   15.2950   -1.1480 C   0  0  1  0  0  0  0  0  0  0  0  0
   -4.3060   15.5870   -0.9980 N   0  0  0  0  0  0  0  0  0  0  0  0
   -3.1140   15.6230   -0.2450 C   0  0  1  0  0  0  0  0  0  0  0  0
   -0.9320   14.5450   -0.4100 N   0  0  0  0  0  0  0  0  0  0  0  0
   -5.2810   15.0760   -0.0410 C   0  0  0  0  0  0  0  0  0  0  0  0
   -3.2150   14.5290    0.7190 C   0  0  2  0  0  0  0  0  0  0  0  0
   -0.9390   14.9210    0.9960 C   0  0  2  0  0  0  0  0  0  0  0  0
   -4.5380   14.8080    1.1440 N   0  0  0  0  0  0  0  0  0  0  0  0
   -0.0220   14.0780    1.6690 N   0  0  0  0  0  0  0  0  0  0  0  0
   -6.4960   14.9050   -0.1860 O   0  0  0  0  0  0  0  0  0  0  0  0
   -2.1890   14.7150    1.6770 N   0  0  0  0  0  0  0  0  0  0  0  0
  1  2  1  0
  2  3  1  0
  2  4  1  0
  3  5  1  0
  4  6  1  0
  6  5  1  6
  4  7  1  1
  5  8  1  0
  6  9  1  0
  7 10  1  0
  8 11  1  0
  9 11  1  1
 10 12  1  1
  8 13  2  0
  9 14  1  0
 10 14  1  0
M  END
