mac-x0358-diamond-x0969_0_A
     RDKit          3D

 23 25  0  0  0  0  0  0  0  0999 V2000
    1.7080   12.7800   -2.2200 O   0  0  0  0  0  0  0  0  0  0  0  0
    1.0660   12.0200   -3.1260 C   0  0  0  0  0  0  0  0  0  0  0  0
    0.4260   11.0400   -2.7750 O   0  0  0  0  0  0  0  0  0  0  0  0
    1.1790   12.5210   -4.5430 C   0  0  0  0  0  0  0  0  0  0  0  0
   -0.1760   12.9500   -4.9470 C   0  0  0  0  0  0  0  0  0  0  0  0
   -0.9940   12.3650   -5.9080 C   0  0  0  0  0  0  0  0  0  0  0  0
   -0.6400   14.0120   -4.2640 C   0  0  0  0  0  0  0  0  0  0  0  0
   -0.5910   11.2750   -6.6040 O   0  0  0  0  0  0  0  0  0  0  0  0
   -2.2700   12.8640   -6.1890 C   0  0  0  0  0  0  0  0  0  0  0  0
   -1.8760   14.4920   -4.5040 C   0  0  0  0  0  0  0  0  0  0  0  0
   -2.2340   15.5770   -3.6420 C   0  0  0  0  0  0  0  0  0  0  0  0
   -2.7250   13.9530   -5.4730 C   0  0  0  0  0  0  0  0  0  0  0  0
   -3.6440   15.3080   -3.2580 C   0  0  0  0  0  0  0  0  0  0  0  0
   -4.1730   15.1780   -1.8570 C   0  0  0  0  0  0  0  0  0  0  0  0
   -5.4700   15.0160   -1.9040 C   0  0  0  0  0  0  0  0  0  0  0  0
   -3.4620   15.2120   -0.5530 C   0  0  0  0  0  0  0  0  0  0  0  0
   -6.2380   14.8830   -0.7720 C   0  0  0  0  0  0  0  0  0  0  0  0
   -4.2150   15.0950    0.5880 C   0  0  0  0  0  0  0  0  0  0  0  0
   -7.5220   14.7180   -0.6670 N   0  0  0  0  0  0  0  0  0  0  0  0
   -5.6190   14.9310    0.4610 N   0  0  0  0  0  0  0  0  0  0  0  0
   -6.7060   14.7910    1.3370 C   0  0  0  0  0  0  0  0  0  0  0  0
   -7.8170   14.6600    0.6560 N   0  0  0  0  0  0  0  0  0  0  0  0
   -6.6690   14.8000    2.6730 N   0  0  0  0  0  0  0  0  0  0  0  0
  1  2  1  0
  2  3  2  0
  2  4  1  0
  4  5  1  0
  5  6  2  0
  5  7  1  0
  6  8  1  0
  6  9  1  0
  7 10  2  0
 10 11  1  0
  9 12  2  0
 10 12  1  0
 11 13  1  0
 13 14  1  0
 14 15  2  0
 14 16  1  0
 15 17  1  0
 16 18  2  0
 17 19  2  0
 17 20  1  0
 18 20  1  0
 20 21  1  0
 19 22  1  0
 21 22  2  0
 21 23  1  0
M  END
