mac-x0381-mac-x0373
     RDKit          3D

 32 35  0  0  0  0  0  0  0  0999 V2000
   -7.9900   14.4040    5.2780 N   0  0  0  0  0  0  0  0  0  0  0  0
   -8.2410   14.5090    3.9510 C   0  0  0  0  0  0  0  0  0  0  0  0
   -7.4430   14.1150    3.0610 N   0  0  0  0  0  0  0  0  0  0  0  0
   -9.5460   15.1070    3.4960 C   0  0  0  0  0  0  0  0  0  0  0  0
   -7.6370   14.1510    1.6280 C   0  0  0  0  0  0  0  0  0  0  0  0
   -9.6010   15.8870    2.3310 C   0  0  0  0  0  0  0  0  0  0  0  0
  -10.7100   14.8830    4.2340 C   0  0  0  0  0  0  0  0  0  0  0  0
   -6.2940   13.8900    0.9600 C   0  0  0  0  0  0  0  0  0  0  0  0
  -10.8090   16.4430    1.8920 C   0  0  0  0  0  0  0  0  0  0  0  0
  -11.9190   15.4310    3.8080 C   0  0  0  0  0  0  0  0  0  0  0  0
   -5.5620   15.1860    0.6240 C   0  0  0  0  0  0  0  0  0  0  0  0
  -11.9880   16.2090    2.6410 C   0  0  0  0  0  0  0  0  0  0  0  0
  -10.8780   17.2260    0.7270 C   0  0  0  0  0  0  0  0  0  0  0  0
  -13.2010   16.7570    2.2070 C   0  0  0  0  0  0  0  0  0  0  0  0
  -12.0950   17.7640    0.3110 C   0  0  0  0  0  0  0  0  0  0  0  0
   -4.3610   15.0190   -0.1920 C   0  0  0  0  0  0  0  0  0  0  0  0
  -13.2550   17.5310    1.0470 C   0  0  0  0  0  0  0  0  0  0  0  0
   -4.4550   15.3020   -1.5470 C   0  0  0  0  0  0  0  0  0  0  0  0
   -3.1710   14.5790    0.3720 C   0  0  0  0  0  0  0  0  0  0  0  0
   -3.3560   15.1180   -2.3550 C   0  0  0  0  0  0  0  0  0  0  0  0
   -2.0660   14.3940   -0.4350 C   0  0  0  0  0  0  0  0  0  0  0  0
   -2.1540   14.6500   -1.8090 C   0  0  0  0  0  0  0  0  0  0  0  0
   -0.9950   14.4160   -2.7340 C   0  0  1  0  0  0  0  0  0  0  0  0
    0.3920   14.3190   -2.0610 C   0  0  0  0  0  0  0  0  0  0  0  0
   -1.3970   13.1980   -3.5730 C   0  0  0  0  0  0  0  0  0  0  0  0
    0.5770   13.2920   -1.1830 O   0  0  0  0  0  0  0  0  0  0  0  0
    1.3130   15.0850   -2.2570 O   0  0  0  0  0  0  0  0  0  0  0  0
   -0.8150   12.9470   -4.8280 C   0  0  0  0  0  0  0  0  0  0  0  0
   -2.3720   12.2960   -3.0920 C   0  0  0  0  0  0  0  0  0  0  0  0
   -1.1980   11.8300   -5.5730 C   0  0  0  0  0  0  0  0  0  0  0  0
   -2.7500   11.1810   -3.8410 C   0  0  0  0  0  0  0  0  0  0  0  0
   -2.1630   10.9480   -5.0810 C   0  0  0  0  0  0  0  0  0  0  0  0
  1  2  1  0
  2  3  2  3
  2  4  1  0
  3  5  1  0
  4  6  2  0
  4  7  1  0
  5  8  1  0
  6  9  1  0
  7 10  2  0
  8 11  1  0
  9 12  2  0
 10 12  1  0
  9 13  1  0
 12 14  1  0
 13 15  2  0
 11 16  1  0
 14 17  2  0
 15 17  1  0
 16 18  2  0
 16 19  1  0
 18 20  1  0
 19 21  2  0
 20 22  2  0
 21 22  1  0
 22 23  1  0
 23 24  1  1
 23 25  1  0
 24 26  1  0
 24 27  2  0
 25 28  2  0
 25 29  1  0
 28 30  1  0
 29 31  2  0
 30 32  2  0
 31 32  1  0
M  END
