mac-x0212-mac-x0354
     RDKit          3D

 30 32  0  0  0  0  0  0  0  0999 V2000
   -6.6160   12.7040    1.4470 C   0  0  0  0  0  0  0  0  0  0  0  0
   -7.0250   14.4050    1.0810 S   0  0  0  0  0  0  0  0  0  0  0  0
   -7.8430   14.9170    2.1610 O   0  0  0  0  0  0  0  0  0  0  0  0
   -7.4660   14.5080   -0.2920 O   0  0  0  0  0  0  0  0  0  0  0  0
   -5.5210   15.1350    1.2670 N   0  0  0  0  0  0  0  0  0  0  0  0
   -4.6130   15.0530    0.1790 C   0  0  0  0  0  0  0  0  0  0  0  0
   -3.3960   14.4690    0.4860 C   0  0  0  0  0  0  0  0  0  0  0  0
   -4.8770   15.4990   -1.1330 C   0  0  0  0  0  0  0  0  0  0  0  0
   -2.4390   14.3100   -0.4960 C   0  0  0  0  0  0  0  0  0  0  0  0
   -3.9040   15.3390   -2.1390 C   0  0  0  0  0  0  0  0  0  0  0  0
   -2.6960   14.7360   -1.7960 C   0  0  0  0  0  0  0  0  0  0  0  0
   -1.6010   14.4750   -2.7260 C   0  0  0  0  0  0  0  0  0  0  0  0
   -0.4560   14.1110   -2.2950 N   0  0  0  0  0  0  0  0  0  0  0  0
   -1.9190   14.5930   -4.0370 O   0  0  0  0  0  0  0  0  0  0  0  0
    0.7000   13.7010   -3.0480 C   0  0  0  0  0  0  0  0  0  0  0  0
    0.7880   12.3210   -2.6100 N   0  0  0  0  0  0  0  0  0  0  0  0
    0.9360   11.3350   -3.3910 C   0  0  0  0  0  0  0  0  0  0  0  0
    0.9460   10.0470   -2.9830 O   0  0  0  0  0  0  0  0  0  0  0  0
    1.1020   11.4880   -4.8010 C   0  0  0  0  0  0  0  0  0  0  0  0
    2.0830   12.2930   -5.4040 C   0  0  0  0  0  0  0  0  0  0  0  0
    0.4010   10.9350   -5.8590 C   0  0  0  0  0  0  0  0  0  0  0  0
    0.9920   11.4250   -6.9820 N   0  0  0  0  0  0  0  0  0  0  0  0
    2.0120   12.2550   -6.7150 N   0  0  0  0  0  0  0  0  0  0  0  0
   -0.7250   10.0270   -5.9410 C   0  0  0  0  0  0  0  0  0  0  0  0
    0.6120   11.1270   -8.3530 C   0  0  0  0  0  0  0  0  0  0  0  0
   -0.5730    8.7800   -6.5550 C   0  0  0  0  0  0  0  0  0  0  0  0
   -1.9660   10.3870   -5.4140 C   0  0  0  0  0  0  0  0  0  0  0  0
   -1.6520    7.9000   -6.6370 C   0  0  0  0  0  0  0  0  0  0  0  0
   -3.0470    9.5080   -5.4960 C   0  0  0  0  0  0  0  0  0  0  0  0
   -2.8880    8.2660   -6.1080 C   0  0  0  0  0  0  0  0  0  0  0  0
  1  2  1  0
  2  3  2  0
  2  4  2  0
  2  5  1  0
  5  6  1  0
  6  7  2  0
  6  8  1  0
  7  9  1  0
  8 10  2  0
  9 11  2  0
 10 11  1  0
 11 12  1  0
 12 13  2  3
 12 14  1  0
 13 15  1  0
 15 16  1  0
 16 17  2  3
 17 18  1  0
 17 19  1  0
 19 20  1  0
 19 21  2  0
 21 22  1  0
 20 23  2  0
 22 23  1  0
 21 24  1  0
 22 25  1  0
 24 26  2  0
 24 27  1  0
 26 28  1  0
 27 29  2  0
 28 30  2  0
 29 30  1  0
M  END
