mac-x0190-diamond-x0969_0_A
     RDKit          3D

 12 13  0  0  0  0  0  0  0  0999 V2000
   -9.3190   14.9550    2.3240 O   0  0  0  0  0  0  0  0  0  0  0  0
   -9.1990   14.3560    1.0300 C   0  0  0  0  0  0  0  0  0  0  0  0
   -7.8190   14.5940    0.5430 C   0  0  0  0  0  0  0  0  0  0  0  0
   -7.4280   14.7010   -0.7120 N   0  0  0  0  0  0  0  0  0  0  0  0
   -6.7740   14.7370    1.3960 N   0  0  0  0  0  0  0  0  0  0  0  0
   -6.8880   14.6860    2.8000 N   0  0  0  0  0  0  0  0  0  0  0  0
   -6.0720   14.9180   -0.6470 C   0  0  0  0  0  0  0  0  0  0  0  0
   -5.6250   14.9390    0.6700 C   0  0  0  0  0  0  0  0  0  0  0  0
   -5.1550   15.1090   -1.6870 C   0  0  0  0  0  0  0  0  0  0  0  0
   -4.2820   15.1360    1.0150 C   0  0  0  0  0  0  0  0  0  0  0  0
   -3.8080   15.3060   -1.3680 C   0  0  0  0  0  0  0  0  0  0  0  0
   -3.3860   15.3140   -0.0360 C   0  0  0  0  0  0  0  0  0  0  0  0
  1  2  1  0
  2  3  1  0
  3  4  2  0
  3  5  1  0
  5  6  1  0
  4  7  1  0
  5  8  1  0
  7  8  2  0
  7  9  1  0
  8 10  1  0
  9 11  2  0
 10 12  2  0
 11 12  1  0
M  END
