mac-x0213-mac-x0345
     RDKit          3D

 23 25  0  0  0  0  0  0  0  0999 V2000
    0.2600   11.5410   -2.8270 O   0  0  0  0  0  0  0  0  0  0  0  0
    0.7120   12.8080   -2.6480 C   0  0  0  0  0  0  0  0  0  0  0  0
    1.0860   13.2000   -1.5650 O   0  0  0  0  0  0  0  0  0  0  0  0
    0.6620   13.6280   -3.9080 C   0  0  1  0  0  0  0  0  0  0  0  0
   -0.7990   13.7560   -4.3150 C   0  0  0  0  0  0  0  0  0  0  0  0
    1.2410   15.0560   -3.7300 C   0  0  0  0  0  0  0  0  0  0  0  0
   -0.9130   15.1750   -4.7130 C   0  0  0  0  0  0  0  0  0  0  0  0
    0.2160   15.9200   -4.4000 C   0  0  0  0  0  0  0  0  0  0  0  0
   -1.9960   15.6990   -5.3210 C   0  0  0  0  0  0  0  0  0  0  0  0
    0.2790   17.2750   -4.7110 C   0  0  0  0  0  0  0  0  0  0  0  0
   -3.1360   14.7430   -5.5930 C   0  0  0  0  0  0  0  0  0  0  0  0
   -1.9690   17.0770   -5.6480 C   0  0  0  0  0  0  0  0  0  0  0  0
   -0.8300   17.8560   -5.3410 C   0  0  0  0  0  0  0  0  0  0  0  0
   -4.3530   15.2720   -4.9150 C   0  0  0  0  0  0  0  0  0  0  0  0
   -5.1950   14.4870   -3.9900 N   0  0  0  0  0  0  0  0  0  0  0  0
   -5.1270   14.7240   -2.5900 C   0  0  0  0  0  0  0  0  0  0  0  0
   -3.8940   15.0810   -2.0610 C   0  0  0  0  0  0  0  0  0  0  0  0
   -6.2180   14.5900   -1.7860 N   0  0  0  0  0  0  0  0  0  0  0  0
   -6.0920   14.7940   -0.4380 C   0  0  0  0  0  0  0  0  0  0  0  0
   -3.7700   15.2870   -0.7000 C   0  0  0  0  0  0  0  0  0  0  0  0
   -7.3440   14.6150    0.3810 C   0  0  0  0  0  0  0  0  0  0  0  0
   -4.8590   15.1410    0.1180 C   0  0  0  0  0  0  0  0  0  0  0  0
   -4.5220   15.4280    1.9330 Br  0  0  0  0  0  0  0  0  0  0  0  0
  1  2  1  0
  2  3  2  0
  4  2  1  1
  4  5  1  0
  4  6  1  0
  5  7  1  0
  6  8  1  0
  7  8  2  0
  7  9  1  0
  8 10  1  0
  9 11  1  0
  9 12  2  0
 10 13  2  0
 12 13  1  0
 11 14  1  0
 14 15  1  0
 15 16  1  0
 16 17  2  0
 16 18  1  0
 18 19  2  0
 17 20  1  0
 19 21  1  0
 19 22  1  0
 20 22  2  0
 22 23  1  0
M  END
