mac-x0439-diamond-x0465_0_A
     RDKit          3D

 25 27  0  0  0  0  0  0  0  0999 V2000
   -3.0760   15.9590   -5.2880 Cl  0  0  0  0  0  0  0  0  0  0  0  0
   -1.6800   16.9410   -5.4870 C   0  0  0  0  0  0  0  0  0  0  0  0
   -0.3630   16.3100   -5.3020 C   0  0  2  0  0  0  0  0  0  0  0  0
   -1.7140   18.2320   -5.8200 C   0  0  0  0  0  0  0  0  0  0  0  0
   -0.0930   15.2320   -4.4070 C   0  0  0  0  0  0  0  0  0  0  0  0
    0.6550   17.2490   -4.7970 C   0  0  0  0  0  0  0  0  0  0  0  0
   -0.4670   18.9650   -5.9780 C   0  0  0  0  0  0  0  0  0  0  0  0
    0.9240   15.5500   -3.6340 C   0  0  0  0  0  0  0  0  0  0  0  0
    1.3880   16.8160   -3.8350 N   0  0  0  0  0  0  0  0  0  0  0  0
    0.7190   18.5260   -5.4860 C   0  0  0  0  0  0  0  0  0  0  0  0
    1.3810   14.4640   -2.7800 C   0  0  0  0  0  0  0  0  0  0  0  0
    2.4740   14.6110   -1.9620 O   0  0  0  0  0  0  0  0  0  0  0  0
    0.6730   13.4950   -3.0510 N   0  0  0  0  0  0  0  0  0  0  0  0
    0.2850   12.1650   -2.9710 C   0  0  1  0  0  0  0  0  0  0  0  0
    0.3420   12.1370   -4.5330 C   0  0  1  0  0  0  0  0  0  0  0  0
    1.0710   11.1960   -2.3760 O   0  0  0  0  0  0  0  0  0  0  0  0
    1.6220   12.8150   -5.0750 C   0  0  0  0  0  0  0  0  0  0  0  0
    0.3520   10.8500   -5.0670 O   0  0  0  0  0  0  0  0  0  0  0  0
   -0.7720   10.3330   -5.5710 C   0  0  0  0  0  0  0  0  0  0  0  0
   -0.8860    9.4820   -6.6570 C   0  0  0  0  0  0  0  0  0  0  0  0
   -1.9200   10.7270   -4.8810 C   0  0  0  0  0  0  0  0  0  0  0  0
    0.1850    9.0770   -7.3570 F   0  0  0  0  0  0  0  0  0  0  0  0
   -2.1290    9.0160   -7.0570 C   0  0  0  0  0  0  0  0  0  0  0  0
   -3.1690   10.2660   -5.2770 C   0  0  0  0  0  0  0  0  0  0  0  0
   -3.2760    9.4080   -6.3650 C   0  0  0  0  0  0  0  0  0  0  0  0
  1  2  1  0
  2  3  1  0
  2  4  2  0
  3  5  1  1
  3  6  1  0
  4  7  1  0
  5  8  2  0
  6  9  2  0
  8  9  1  0
  6 10  1  0
  7 10  2  0
  8 11  1  0
 11 12  1  0
 11 13  2  3
 13 14  1  0
 14 15  1  0
 14 16  1  1
 15 17  1  1
 15 18  1  0
 18 19  1  0
 19 20  2  0
 19 21  1  0
 20 22  1  0
 20 23  1  0
 21 24  2  0
 23 25  2  0
 24 25  1  0
M  END
