mac-x0451-mac-x0178
     RDKit          3D

 24 26  0  0  0  0  0  0  0  0999 V2000
   -6.3240   15.0670    2.7520 N   0  0  0  0  0  0  0  0  0  0  0  0
   -5.6040   14.8760    1.6380 C   0  0  0  0  0  0  0  0  0  0  0  0
   -6.0820   15.0910    0.4470 N   0  0  0  0  0  0  0  0  0  0  0  0
   -3.9870   14.3210    1.6990 S   0  0  0  0  0  0  0  0  0  0  0  0
   -5.1410   14.7930   -0.4990 C   0  0  0  0  0  0  0  0  0  0  0  0
   -3.9280   14.3320    0.0000 C   0  0  0  0  0  0  0  0  0  0  0  0
   -5.3140   14.9030   -1.8890 C   0  0  0  0  0  0  0  0  0  0  0  0
   -2.8790   13.9440   -0.8200 C   0  0  0  0  0  0  0  0  0  0  0  0
   -4.2780   14.5100   -2.7320 C   0  0  0  0  0  0  0  0  0  0  0  0
   -3.0900   14.0220   -2.1930 C   0  0  0  0  0  0  0  0  0  0  0  0
   -2.1130   13.5800   -3.0510 O   0  0  0  0  0  0  0  0  0  0  0  0
   -1.2500   14.4410   -3.5940 C   0  0  0  0  0  0  0  0  0  0  0  0
    0.1160   14.2460   -3.4240 C   0  0  0  0  0  0  0  0  0  0  0  0
   -1.7740   15.4980   -4.3050 C   0  0  0  0  0  0  0  0  0  0  0  0
    0.6260   13.0750   -2.6570 C   0  0  0  0  0  0  0  0  0  0  0  0
   -0.9140   16.4070   -4.8610 C   0  0  0  0  0  0  0  0  0  0  0  0
    0.9910   15.1820   -3.9940 C   0  0  0  0  0  0  0  0  0  0  0  0
   -1.6300   17.7510   -5.7560 S   0  0  0  0  0  0  0  0  0  0  0  0
    1.1720   13.0920   -1.5820 O   0  0  0  0  0  0  0  0  0  0  0  0
    0.4210   11.9090   -3.3020 O   0  0  0  0  0  0  0  0  0  0  0  0
    0.4720   16.2660   -4.7130 C   0  0  0  0  0  0  0  0  0  0  0  0
   -0.2890   18.4220   -6.5100 N   0  0  0  0  0  0  0  0  0  0  0  0
   -2.5000   17.2100   -6.7690 O   0  0  0  0  0  0  0  0  0  0  0  0
   -2.0960   18.7160   -4.8000 O   0  0  0  0  0  0  0  0  0  0  0  0
  1  2  1  0
  2  3  2  0
  2  4  1  0
  3  5  1  0
  4  6  1  0
  5  6  2  0
  5  7  1  0
  6  8  1  0
  7  9  2  0
  8 10  2  0
  9 10  1  0
 10 11  1  0
 11 12  1  0
 12 13  2  0
 12 14  1  0
 13 15  1  0
 14 16  2  0
 13 17  1  0
 16 18  1  0
 15 19  2  0
 15 20  1  0
 16 21  1  0
 17 21  2  0
 18 22  1  0
 18 23  2  0
 18 24  2  0
M  END
