mac-x0433-diamond-x0844_0_A
     RDKit          3D

 10 10  0  0  0  0  0  0  0  0999 V2000
   -3.0460   15.1250    0.5500 C   0  0  0  0  0  0  0  0  0  0  0  0
   -4.4480   15.4310    0.0090 C   0  0  2  0  0  0  0  0  0  0  0  0
   -5.4970   14.6390    0.8330 C   0  0  0  0  0  0  0  0  0  0  0  0
   -4.5780   15.3430   -1.4690 N   0  0  0  0  0  0  0  0  0  0  0  0
   -3.0990   14.7230   -2.4360 Br  0  0  0  0  0  0  0  0  0  0  0  0
   -5.8110   14.7080   -1.8780 C   0  0  2  0  0  0  0  0  0  0  0  0
   -6.8590   14.3840    0.1440 C   0  0  1  0  0  0  0  0  0  0  0  0
   -8.0340   14.7210    1.0550 C   0  0  0  0  0  0  0  0  0  0  0  0
   -6.0770   15.0210   -3.2510 N   0  0  0  0  0  0  0  0  0  0  0  0
   -6.9430   15.1090   -1.1090 N   0  0  0  0  0  0  0  0  0  0  0  0
  2  1  1  6
  2  3  1  0
  2  4  1  0
  4  5  1  0
  4  6  1  0
  3  7  1  0
  7  8  1  1
  6  9  1  6
  6 10  1  0
  7 10  1  0
M  END
