mac-x0277-mac-x0283
     RDKit          3D

 24 26  0  0  0  0  0  0  0  0999 V2000
   -1.2350   18.3450   -5.2270 Cl  0  0  0  0  0  0  0  0  0  0  0  0
   -0.4900   16.8120   -4.9460 C   0  0  0  0  0  0  0  0  0  0  0  0
   -1.2080   15.6180   -5.0360 C   0  0  0  0  0  0  0  0  0  0  0  0
    0.8610   16.7850   -4.6210 C   0  0  0  0  0  0  0  0  0  0  0  0
   -2.6580   15.5520   -5.3640 C   0  0  0  0  0  0  0  0  0  0  0  0
   -0.5510   14.4060   -4.8020 C   0  0  0  0  0  0  0  0  0  0  0  0
    1.5040   15.5650   -4.3860 C   0  0  0  0  0  0  0  0  0  0  0  0
   -3.4720   15.4220   -4.0910 C   0  0  0  0  0  0  0  0  0  0  0  0
    0.8000   14.3670   -4.4780 C   0  0  0  0  0  0  0  0  0  0  0  0
    1.4750   13.0440   -4.2270 C   0  0  0  0  0  0  0  0  0  0  0  0
   -2.7800   14.8340   -2.8600 C   0  0  0  0  0  0  0  0  0  0  0  0
    1.0030   12.4030   -2.9460 C   0  0  0  0  0  0  0  0  0  0  0  0
   -3.6880   14.8460   -1.6640 C   0  0  0  0  0  0  0  0  0  0  0  0
    0.3140   11.2640   -3.1630 O   0  0  0  0  0  0  0  0  0  0  0  0
    1.1710   12.7960   -1.8080 O   0  0  0  0  0  0  0  0  0  0  0  0
   -5.0600   14.8080   -1.9070 C   0  0  0  0  0  0  0  0  0  0  0  0
   -3.2030   14.8840   -0.3400 C   0  0  0  0  0  0  0  0  0  0  0  0
   -5.8970   14.7900   -0.8130 C   0  0  0  0  0  0  0  0  0  0  0  0
   -4.0850   14.8700    0.7570 C   0  0  0  0  0  0  0  0  0  0  0  0
   -7.2500   14.7440   -0.8640 O   0  0  0  0  0  0  0  0  0  0  0  0
   -5.4730   14.8140    0.5000 C   0  0  0  0  0  0  0  0  0  0  0  0
   -6.6990   14.7660    1.2280 C   0  0  0  0  0  0  0  0  0  0  0  0
   -7.7590   14.7250    0.4170 N   0  0  0  0  0  0  0  0  0  0  0  0
   -6.7960   14.7680    2.5680 N   0  0  0  0  0  0  0  0  0  0  0  0
  1  2  1  0
  2  3  2  0
  2  4  1  0
  3  5  1  0
  3  6  1  0
  4  7  2  0
  5  8  1  0
  6  9  2  0
  7  9  1  0
  9 10  1  0
  8 11  1  0
 10 12  1  0
 11 13  1  0
 12 14  1  0
 12 15  2  0
 13 16  2  0
 13 17  1  0
 16 18  1  0
 17 19  2  0
 18 20  1  0
 18 21  2  0
 19 21  1  0
 21 22  1  0
 20 23  1  0
 22 23  2  0
 22 24  1  0
M  END
