mac-x0116-mac-x0385
     RDKit          3D

 17 19  0  0  0  0  0  0  0  0999 V2000
   -6.0550   14.7060    1.3460 C   0  0  0  0  0  0  0  0  0  0  0  0
   -4.6550   15.0490    1.5160 N   0  0  0  0  0  0  0  0  0  0  0  0
   -3.7140   15.0500    0.4870 C   0  0  0  0  0  0  0  0  0  0  0  0
   -6.4220   13.2670    1.4680 C   0  0  0  0  0  0  0  0  0  0  0  0
   -6.3600   12.5080    0.3370 O   0  0  0  0  0  0  0  0  0  0  0  0
   -6.8420   12.4960    2.5320 C   0  0  0  0  0  0  0  0  0  0  0  0
   -7.0510   11.2020    2.0290 C   0  0  0  0  0  0  0  0  0  0  0  0
   -6.7440   11.2580    0.6900 C   0  0  0  0  0  0  0  0  0  0  0  0
   -4.0990   15.3530   -0.8250 N   0  0  0  0  0  0  0  0  0  0  0  0
   -2.4260   14.7550    0.7730 C   0  0  0  0  0  0  0  0  0  0  0  0
   -3.1670   15.3620   -1.7390 C   0  0  0  0  0  0  0  0  0  0  0  0
   -1.4590   14.7470   -0.3090 C   0  0  0  0  0  0  0  0  0  0  0  0
   -1.7450   14.4290    1.9050 N   0  0  0  0  0  0  0  0  0  0  0  0
   -1.8200   15.0980   -1.5370 N   0  0  0  0  0  0  0  0  0  0  0  0
   -0.3050   14.3880    0.1320 N   0  0  0  0  0  0  0  0  0  0  0  0
   -0.5390   14.2100    1.4760 C   0  0  0  0  0  0  0  0  0  0  0  0
   -0.7490   15.8580   -2.1190 C   0  0  0  0  0  0  0  0  0  0  0  0
  1  2  1  0
  2  3  1  0
  1  4  1  0
  4  5  1  0
  4  6  2  0
  6  7  1  0
  5  8  1  0
  7  8  2  0
  3  9  1  0
  3 10  2  0
  9 11  2  0
 10 12  1  0
 10 13  1  0
 11 14  1  0
 12 14  1  0
 12 15  2  0
 13 16  2  0
 15 16  1  0
 14 17  1  0
M  END
