mac-x0179-mac-x0231
     RDKit          3D

 26 29  0  0  0  0  0  0  0  0999 V2000
    2.0210   12.5630   -2.3590 O   0  0  0  0  0  0  0  0  0  0  0  0
    1.1170   11.7700   -2.9860 C   0  0  0  0  0  0  0  0  0  0  0  0
    0.9870   10.5820   -2.7600 O   0  0  0  0  0  0  0  0  0  0  0  0
    0.2820   12.5120   -3.9650 C   0  0  2  0  0  0  0  0  0  0  0  0
   -0.0270   11.6500   -5.1160 N   0  0  0  0  0  0  0  0  0  0  0  0
    0.4910   14.0160   -4.0980 C   0  0  2  0  0  0  0  0  0  0  0  0
    0.6880   11.4690   -6.2840 C   0  0  0  0  0  0  0  0  0  0  0  0
   -1.1730   10.9280   -5.1280 C   0  0  0  0  0  0  0  0  0  0  0  0
   -0.4840   14.4750   -5.1410 C   0  0  2  0  0  0  0  0  0  0  0  0
    1.8100   14.5890   -4.4180 N   0  0  0  0  0  0  0  0  0  0  0  0
    1.6950   12.0450   -6.6460 O   0  0  0  0  0  0  0  0  0  0  0  0
   -2.0910   10.9440   -4.3340 O   0  0  0  0  0  0  0  0  0  0  0  0
   -0.0040   10.3990   -7.0220 C   0  0  0  0  0  0  0  0  0  0  0  0
   -1.1430   10.0790   -6.2990 C   0  0  0  0  0  0  0  0  0  0  0  0
   -0.8420   15.8530   -4.6270 C   0  0  1  0  0  0  0  0  0  0  0  0
    1.6620   16.0000   -4.5930 N   0  0  0  0  0  0  0  0  0  0  0  0
   -1.6870   13.5810   -5.3420 C   0  0  0  0  0  0  0  0  0  0  0  0
    0.2980    9.7440   -8.1990 C   0  0  0  0  0  0  0  0  0  0  0  0
   -2.0340    9.1100   -6.6970 C   0  0  0  0  0  0  0  0  0  0  0  0
    0.4370   16.6800   -4.8240 C   0  0  0  0  0  0  0  0  0  0  0  0
   -2.1270   16.3760   -5.2200 C   0  0  0  0  0  0  0  0  0  0  0  0
   -2.8890   14.0960   -5.5750 C   0  0  0  0  0  0  0  0  0  0  0  0
    0.4420   17.8570   -5.1530 O   0  0  0  0  0  0  0  0  0  0  0  0
   -0.5930    8.7490   -8.6270 C   0  0  0  0  0  0  0  0  0  0  0  0
   -1.7530    8.4350   -7.8800 C   0  0  0  0  0  0  0  0  0  0  0  0
   -3.0770   15.5200   -5.6520 C   0  0  0  0  0  0  0  0  0  0  0  0
  1  2  1  0
  2  3  2  0
  4  2  1  6
  4  5  1  0
  4  6  1  0
  5  7  1  0
  5  8  1  0
  6  9  1  0
  6 10  1  6
  7 11  2  0
  8 12  2  0
  7 13  1  0
  8 14  1  0
 13 14  2  0
  9 15  1  0
 10 16  1  0
  9 17  1  1
 13 18  1  0
 14 19  1  0
 15 20  1  0
 16 20  1  0
 15 21  1  6
 17 22  2  0
 20 23  2  0
 18 24  2  0
 19 25  2  0
 24 25  1  0
 21 26  2  0
 22 26  1  0
M  END
