mac-x0402-diamond-x0900_0_A
     RDKit          3D

 12 13  0  0  0  0  0  0  0  0999 V2000
   -1.6250   14.7510   -3.3360 Cl  0  0  0  0  0  0  0  0  0  0  0  0
   -2.9950   14.8310   -2.3030 C   0  0  0  0  0  0  0  0  0  0  0  0
   -4.2530   14.9490   -2.8760 C   0  0  0  0  0  0  0  0  0  0  0  0
   -2.8210   14.7740   -0.9110 C   0  0  0  0  0  0  0  0  0  0  0  0
   -3.9600   14.8330   -0.0940 C   0  0  0  0  0  0  0  0  0  0  0  0
   -5.3880   15.0070   -2.0840 C   0  0  0  0  0  0  0  0  0  0  0  0
   -5.2180   14.9440   -0.7030 C   0  0  0  0  0  0  0  0  0  0  0  0
   -3.9840   14.7770    1.6570 S   0  0  0  0  0  0  0  0  0  0  0  0
   -5.6950   14.8940    1.5890 C   0  0  0  0  0  0  0  0  0  0  0  0
   -6.1960   14.9740    0.2040 N   0  0  0  0  0  0  0  0  0  0  0  0
   -6.5380   14.9110    2.8100 N   0  0  0  0  0  0  0  0  0  0  0  0
   -7.4360   15.0590   -0.0030 O   0  0  0  0  0  0  0  0  0  0  0  0
  1  2  1  0
  2  3  2  0
  2  4  1  0
  4  5  2  0
  3  6  1  0
  5  7  1  0
  6  7  2  0
  5  8  1  0
  8  9  1  0
  7 10  1  0
  9 10  2  0
  9 11  1  0
 10 12  1  0
M  CHG  2  10   1  12  -1
M  END
