mac-x0564-mac-x0137
     RDKit          3D

 19 22  0  0  0  0  0  0  0  0999 V2000
    0.4600   12.8620   -1.0880 O   0  0  0  0  0  0  0  0  0  0  0  0
   -0.1870   13.6350   -1.7770 C   0  0  0  0  0  0  0  0  0  0  0  0
    0.1920   13.8310   -3.1180 N   0  0  0  0  0  0  0  0  0  0  0  0
   -1.4390   14.4710   -1.3560 C   0  0  1  0  0  0  0  0  0  0  0  0
   -2.2420   14.1620   -2.6730 C   0  0  2  0  0  0  0  0  0  0  0  0
   -0.4090   14.7850   -4.0350 C   0  0  0  0  0  0  0  0  0  0  0  0
   -2.4330   14.0530   -0.2510 C   0  0  2  0  0  0  0  0  0  0  0  0
   -0.8310   15.7390   -0.8960 N   0  0  0  0  0  0  0  0  0  0  0  0
   -1.8610   14.7730   -3.9290 N   0  0  0  0  0  0  0  0  0  0  0  0
   -3.8260   14.3030   -0.7570 C   0  0  2  0  0  0  0  0  0  0  0  0
   -3.7530   14.1150   -2.2900 C   0  0  1  0  0  0  0  0  0  0  0  0
   -0.0710   15.5650    0.3610 C   0  0  0  0  0  0  0  0  0  0  0  0
   -2.1110   14.5680    1.1240 C   0  0  0  0  0  0  0  0  0  0  0  0
   -2.4070   13.9980   -4.9280 F   0  0  0  0  0  0  0  0  0  0  0  0
   -4.9600   14.6190   -3.0300 C   0  0  0  0  0  0  0  0  0  0  0  0
   -4.7000   15.4080   -0.2620 C   0  0  0  0  0  0  0  0  0  0  0  0
   -0.6730   14.6370    1.2760 N   0  0  0  0  0  0  0  0  0  0  0  0
   -5.8250   15.4310   -2.4210 C   0  0  0  0  0  0  0  0  0  0  0  0
   -5.6330   15.9000   -1.0770 C   0  0  0  0  0  0  0  0  0  0  0  0
  1  2  2  0
  2  3  1  0
  4  2  1  0
  4  5  1  0
  3  6  1  0
  4  7  1  0
  4  8  1  1
  5  9  1  6
  6  9  1  0
  7 10  1  0
  5 11  1  0
 10 11  1  0
  8 12  1  0
  7 13  1  1
  9 14  1  0
 11 15  1  6
 10 16  1  6
 12 17  1  0
 13 17  1  0
 15 18  2  0
 16 19  2  0
 18 19  1  0
M  END
