mac-x0568-mac-x0226
     RDKit          3D

 27 29  0  0  0  0  0  0  0  0999 V2000
   -8.6000   14.4070    1.2490 C   0  0  0  0  0  0  0  0  0  0  0  0
   -7.2410   14.6330    0.6570 C   0  0  0  0  0  0  0  0  0  0  0  0
   -6.1280   14.6590    1.4830 C   0  0  0  0  0  0  0  0  0  0  0  0
   -7.1540   14.8120   -0.6810 N   0  0  0  0  0  0  0  0  0  0  0  0
   -5.9180   15.0220   -1.2020 C   0  0  0  0  0  0  0  0  0  0  0  0
   -4.8640   14.8750    0.9260 C   0  0  0  0  0  0  0  0  0  0  0  0
   -4.7500   15.0620   -0.4530 C   0  0  0  0  0  0  0  0  0  0  0  0
   -3.4220   15.2900   -1.0730 C   0  0  0  0  0  0  0  0  0  0  0  0
   -3.3670   15.6450   -2.2450 O   0  0  0  0  0  0  0  0  0  0  0  0
   -2.3090   15.0680   -0.2760 N   0  0  0  0  0  0  0  0  0  0  0  0
   -0.9960   15.6160   -0.5760 C   0  0  0  0  0  0  0  0  0  0  0  0
   -0.2070   14.7880   -1.5830 C   0  0  0  0  0  0  0  0  0  0  0  0
    0.1470   13.3900   -1.0960 C   0  0  0  0  0  0  0  0  0  0  0  0
    1.0040   12.7260   -2.0300 O   0  0  0  0  0  0  0  0  0  0  0  0
    0.5200   11.6270   -2.6660 C   0  0  0  0  0  0  0  0  0  0  0  0
    0.0710   10.6290   -2.0970 O   0  0  0  0  0  0  0  0  0  0  0  0
    0.6190   11.7220   -4.1110 C   0  0  0  0  0  0  0  0  0  0  0  0
    1.3700   12.6110   -4.9080 C   0  0  0  0  0  0  0  0  0  0  0  0
   -0.0170   10.9130   -5.0290 C   0  0  0  0  0  0  0  0  0  0  0  0
    1.2260   12.3740   -6.2150 N   0  0  0  0  0  0  0  0  0  0  0  0
    0.3680   11.3150   -6.2860 N   0  0  0  0  0  0  0  0  0  0  0  0
   -0.0260   10.7440   -7.5290 C   0  0  0  0  0  0  0  0  0  0  0  0
   -1.1860    9.9810   -7.6590 C   0  0  0  0  0  0  0  0  0  0  0  0
    0.7680   10.9430   -8.6500 C   0  0  0  0  0  0  0  0  0  0  0  0
   -1.5220    9.4370   -8.9040 C   0  0  0  0  0  0  0  0  0  0  0  0
    0.4420   10.4090   -9.8890 C   0  0  0  0  0  0  0  0  0  0  0  0
   -0.7100    9.6510  -10.0180 C   0  0  0  0  0  0  0  0  0  0  0  0
  1  2  1  0
  2  3  2  0
  2  4  1  0
  4  5  2  0
  3  6  1  0
  5  7  1  0
  6  7  2  0
  7  8  1  0
  8  9  2  0
  8 10  1  0
 10 11  1  0
 11 12  1  0
 12 13  1  0
 13 14  1  0
 14 15  1  0
 15 16  2  0
 15 17  1  0
 17 18  1  0
 17 19  2  0
 18 20  2  0
 19 21  1  0
 20 21  1  0
 21 22  1  0
 22 23  2  0
 22 24  1  0
 23 25  1  0
 24 26  2  0
 25 27  2  0
 26 27  1  0
M  END
