mac-x0345-mac-x0381
     RDKit          3D

 23 25  0  0  0  0  0  0  0  0999 V2000
   -7.4670   14.2440    1.0090 C   0  0  0  0  0  0  0  0  0  0  0  0
   -6.2810   14.7240    0.2340 C   0  0  0  0  0  0  0  0  0  0  0  0
   -6.4760   14.6830   -1.1140 N   0  0  0  0  0  0  0  0  0  0  0  0
   -5.0790   15.1760    0.8370 C   0  0  0  0  0  0  0  0  0  0  0  0
   -4.8890   15.2260    2.2240 O   0  0  0  0  0  0  0  0  0  0  0  0
   -4.0870   15.5790   -0.0510 C   0  0  0  0  0  0  0  0  0  0  0  0
   -5.5020   15.0790   -1.9260 C   0  0  0  0  0  0  0  0  0  0  0  0
   -5.7560   15.0110   -3.3020 N   0  0  0  0  0  0  0  0  0  0  0  0
   -5.7820   14.6820    3.2220 C   0  0  0  0  0  0  0  0  0  0  0  0
   -4.2900   15.5330   -1.4350 C   0  0  0  0  0  0  0  0  0  0  0  0
   -7.1610   15.1180    3.1560 N   0  0  0  0  0  0  0  0  0  0  0  0
   -8.1320   14.4810    3.6850 C   0  0  0  0  0  0  0  0  0  0  0  0
   -8.0280   13.3200    4.4120 N   0  0  0  0  0  0  0  0  0  0  0  0
   -9.4800   15.0870    3.3770 C   0  0  0  0  0  0  0  0  0  0  0  0
   -9.6230   15.8840    2.2340 C   0  0  0  0  0  0  0  0  0  0  0  0
  -10.5940   14.8630    4.1920 C   0  0  0  0  0  0  0  0  0  0  0  0
  -10.8490   16.4510    1.8810 C   0  0  0  0  0  0  0  0  0  0  0  0
  -11.8330   15.4260    3.8540 C   0  0  0  0  0  0  0  0  0  0  0  0
  -11.9750   16.2170    2.6980 C   0  0  0  0  0  0  0  0  0  0  0  0
  -10.9800   17.2450    0.7270 C   0  0  0  0  0  0  0  0  0  0  0  0
  -13.2090   16.7780    2.3350 C   0  0  0  0  0  0  0  0  0  0  0  0
  -12.2130   17.7970    0.3830 C   0  0  0  0  0  0  0  0  0  0  0  0
  -13.3250   17.5630    1.1840 C   0  0  0  0  0  0  0  0  0  0  0  0
  1  2  1  0
  2  3  2  0
  2  4  1  0
  4  5  1  0
  4  6  2  0
  3  7  1  0
  7  8  1  0
  5  9  1  0
  6 10  1  0
  7 10  2  0
  9 11  1  0
 11 12  2  3
 12 13  1  0
 12 14  1  0
 14 15  2  0
 14 16  1  0
 15 17  1  0
 16 18  2  0
 17 19  2  0
 18 19  1  0
 17 20  1  0
 19 21  1  0
 20 22  2  0
 21 23  2  0
 22 23  1  0
M  END
