mac-x0148-mac-x0385
     RDKit          3D

 21 24  0  0  0  0  0  0  0  0999 V2000
   -5.5780   14.8670    0.3470 C   0  0  0  0  0  0  0  0  0  0  0  0
   -4.1460   14.8190    0.0000 C   0  0  0  0  0  0  0  0  0  0  0  0
   -3.1250   14.9610    0.8500 N   0  0  0  0  0  0  0  0  0  0  0  0
   -3.5410   14.6230   -1.1830 C   0  0  0  0  0  0  0  0  0  0  0  0
   -3.0230   15.1530    2.1810 C   0  0  0  0  0  0  0  0  0  0  0  0
   -4.3200   14.4420   -2.2080 N   0  0  0  0  0  0  0  0  0  0  0  0
   -1.9710   14.8980    0.2970 C   0  0  0  0  0  0  0  0  0  0  0  0
   -2.1020   14.6600   -1.0310 C   0  0  0  0  0  0  0  0  0  0  0  0
   -0.9200   15.0650    1.0610 N   0  0  0  0  0  0  0  0  0  0  0  0
   -0.8360   14.5490   -1.6720 C   0  0  0  0  0  0  0  0  0  0  0  0
   -0.4450   14.2690   -2.9570 N   0  0  0  0  0  0  0  0  0  0  0  0
    0.2710   14.7350   -0.9140 N   0  0  0  0  0  0  0  0  0  0  0  0
    0.1600   14.9900    0.3760 C   0  0  0  0  0  0  0  0  0  0  0  0
   -1.1820   14.7180   -4.1360 C   0  0  2  0  0  0  0  0  0  0  0  0
    0.4450   13.1290   -3.0170 C   0  0  0  0  0  0  0  0  0  0  0  0
   -2.6800   14.8780   -3.9310 C   0  0  0  0  0  0  0  0  0  0  0  0
   -1.1160   13.7350   -5.3430 C   0  0  2  0  0  0  0  0  0  0  0  0
   -0.3490   11.9940   -3.6210 C   0  0  0  0  0  0  0  0  0  0  0  0
   -2.5530   13.6970   -5.8480 C   0  0  0  0  0  0  0  0  0  0  0  0
   -3.2390   14.7900   -5.2450 O   0  0  0  0  0  0  0  0  0  0  0  0
   -0.6260   12.2980   -5.0790 C   0  0  0  0  0  0  0  0  0  0  0  0
  1  2  1  0
  2  3  1  0
  2  4  2  0
  3  5  1  0
  4  6  1  0
  3  7  1  0
  4  8  1  0
  7  8  2  0
  7  9  1  0
  8 10  1  0
 10 11  1  0
 10 12  2  0
  9 13  2  0
 12 13  1  0
 11 14  1  0
 11 15  1  0
 14 16  1  1
 14 17  1  0
 15 18  1  0
 17 19  1  1
 16 20  1  0
 19 20  1  0
 17 21  1  0
 18 21  1  0
M  END
