mac-x0565-diamond-x0681_0_A
     RDKit          3D

 24 27  0  0  0  0  0  0  0  0999 V2000
   -5.0600   15.6850    0.9980 O   0  0  0  0  0  0  0  0  0  0  0  0
   -5.3150   15.5780   -0.3150 C   0  0  0  0  0  0  0  0  0  0  0  0
   -6.4710   15.4730   -0.7170 O   0  0  0  0  0  0  0  0  0  0  0  0
   -4.0930   15.5680   -1.2040 C   0  0  0  0  0  0  0  0  0  0  0  0
   -2.8250   16.0170   -0.8200 C   0  0  0  0  0  0  0  0  0  0  0  0
   -4.2360   15.0550   -2.4910 C   0  0  0  0  0  0  0  0  0  0  0  0
   -5.4200   14.5470   -2.7990 N   0  0  0  0  0  0  0  0  0  0  0  0
   -1.8150   15.9220   -1.7720 C   0  0  0  0  0  0  0  0  0  0  0  0
   -3.2260   14.9920   -3.4200 C   0  0  0  0  0  0  0  0  0  0  0  0
   -5.2020   13.2220   -2.5680 C   0  0  0  0  0  0  0  0  0  0  0  0
   -2.0240   15.4330   -3.0340 C   0  0  0  0  0  0  0  0  0  0  0  0
   -0.5230   16.2850   -1.6020 O   0  0  0  0  0  0  0  0  0  0  0  0
   -5.3740   12.3420   -3.3910 O   0  0  0  0  0  0  0  0  0  0  0  0
   -0.9230   15.4330   -3.8180 O   0  0  0  0  0  0  0  0  0  0  0  0
    0.0030   16.0740   -2.9330 C   0  0  0  0  0  0  0  0  0  0  0  0
   -4.6090   12.8460   -1.1690 C   0  0  2  0  0  0  0  0  0  0  0  0
   -5.6820   12.2200   -0.4080 C   0  0  0  0  0  0  0  0  0  0  0  0
   -3.8770   13.9720   -0.3810 C   0  0  0  0  0  0  0  0  0  0  0  0
   -5.9300   12.4640    0.9060 N   0  0  0  0  0  0  0  0  0  0  0  0
   -3.8860   13.8870    1.1620 C   0  0  0  0  0  0  0  0  0  0  0  0
   -6.5310   11.3580   -0.9000 N   0  0  0  0  0  0  0  0  0  0  0  0
   -5.1880   13.3600    1.7610 C   0  0  0  0  0  0  0  0  0  0  0  0
   -6.9960   11.7130    1.2730 C   0  0  0  0  0  0  0  0  0  0  0  0
   -7.3530   11.0350    0.1340 C   0  0  0  0  0  0  0  0  0  0  0  0
  1  2  1  0
  2  3  2  0
  2  4  1  0
  4  5  2  0
  4  6  1  0
  6  7  1  0
  5  8  1  0
  6  9  2  0
  7 10  1  0
  8 11  2  0
  9 11  1  0
  8 12  1  0
 10 13  2  0
 11 14  1  0
 12 15  1  0
 14 15  1  0
 16 10  1  6
 16 17  1  0
 16 18  1  0
 17 19  1  0
 18 20  1  0
 17 21  2  0
 19 22  1  0
 20 22  1  0
 19 23  1  0
 21 24  1  0
 23 24  2  0
M  END
