mac-x0394-mac-x0379
     RDKit          3D

 20 21  0  0  0  0  0  0  0  0999 V2000
    1.2040   18.3690   -6.0900 Cl  0  0  0  0  0  0  0  0  0  0  0  0
    0.4790   17.0230   -5.3440 C   0  0  0  0  0  0  0  0  0  0  0  0
   -0.8810   16.9910   -5.3480 C   0  0  0  0  0  0  0  0  0  0  0  0
    1.2170   15.9940   -4.7540 C   0  0  0  0  0  0  0  0  0  0  0  0
    0.6160   14.9310   -4.1160 C   0  0  0  0  0  0  0  0  0  0  0  0
   -1.5010   15.9470   -4.7300 C   0  0  0  0  0  0  0  0  0  0  0  0
   -3.2030   15.9560   -4.7950 Cl  0  0  0  0  0  0  0  0  0  0  0  0
    1.5690   13.8810   -3.5110 C   0  0  0  0  0  0  0  0  0  0  0  0
   -0.7800   14.9430   -4.0890 C   0  0  0  0  0  0  0  0  0  0  0  0
    0.9640   12.7120   -2.7290 C   0  0  0  0  0  0  0  0  0  0  0  0
   -1.4970   13.9120   -3.3660 C   0  0  1  0  0  0  0  0  0  0  0  0
    0.6400   11.6270   -3.4750 O   0  0  0  0  0  0  0  0  0  0  0  0
    0.7800   12.7440   -1.5070 O   0  0  0  0  0  0  0  0  0  0  0  0
   -0.5760   13.6060   -2.3210 O   0  0  0  0  0  0  0  0  0  0  0  0
   -2.7320   14.3560   -2.6290 C   0  0  0  0  0  0  0  0  0  0  0  0
   -4.0280   14.5580   -3.0490 C   0  0  0  0  0  0  0  0  0  0  0  0
   -2.6470   14.6930   -0.9380 S   0  0  0  0  0  0  0  0  0  0  0  0
   -4.3150   15.0520   -0.9340 C   0  0  0  0  0  0  0  0  0  0  0  0
   -4.9240   14.9530   -2.0860 N   0  0  0  0  0  0  0  0  0  0  0  0
   -4.9740   15.4370    0.3260 C   0  0  0  0  0  0  0  0  0  0  0  0
  1  2  1  0
  2  3  2  0
  2  4  1  0
  4  5  2  0
  3  6  1  0
  6  7  1  0
  5  8  1  0
  5  9  1  0
  6  9  2  0
  8 10  1  0
  9 11  1  0
 10 12  1  0
 10 13  2  0
 11 14  1  1
 11 15  1  0
 15 16  2  0
 15 17  1  0
 17 18  1  0
 16 19  1  0
 18 19  2  0
 18 20  1  0
M  END
