mac-x0188-diamond-x0438_0_A
     RDKit          3D

 24 26  0  0  0  0  0  0  0  0999 V2000
    1.2040   12.7960   -4.7560 C   0  0  0  0  0  0  0  0  0  0  0  0
   -0.0320   13.4440   -4.2740 C   0  0  0  0  0  0  0  0  0  0  0  0
   -1.0870   13.4430   -5.1310 O   0  0  0  0  0  0  0  0  0  0  0  0
   -0.3950   14.0880   -3.0990 C   0  0  0  0  0  0  0  0  0  0  0  0
    0.4740   14.2810   -1.9590 C   0  0  0  0  0  0  0  0  0  0  0  0
   -2.1570   14.0880   -4.5520 N   0  0  0  0  0  0  0  0  0  0  0  0
   -1.7600   14.4930   -3.3260 C   0  0  0  0  0  0  0  0  0  0  0  0
    0.8770   15.3650   -1.6030 O   0  0  0  0  0  0  0  0  0  0  0  0
    0.8440   13.1750   -1.2650 O   0  0  0  0  0  0  0  0  0  0  0  0
   -2.7940   15.2720   -2.4950 C   0  0  1  0  0  0  0  0  0  0  0  0
   -4.2120   14.9330   -2.8870 C   0  0  0  0  0  0  0  0  0  0  0  0
   -2.6530   15.4490   -0.9860 C   0  0  0  0  0  0  0  0  0  0  0  0
   -5.1880   14.6420   -2.0120 C   0  0  0  0  0  0  0  0  0  0  0  0
   -3.6500   15.1730   -0.0960 C   0  0  0  0  0  0  0  0  0  0  0  0
   -5.0070   14.6020   -0.5100 C   0  0  1  0  0  0  0  0  0  0  0  0
   -6.2570   15.2210   -0.0200 N   0  0  0  0  0  0  0  0  0  0  0  0
   -5.1530   13.2100    0.1140 C   0  0  0  0  0  0  0  0  0  0  0  0
   -6.7660   14.5900    1.2010 C   0  0  2  0  0  0  0  0  0  0  0  0
   -6.0560   13.3260    1.2940 N   0  0  0  0  0  0  0  0  0  0  0  0
   -8.2820   14.3390    1.1770 C   0  0  0  0  0  0  0  0  0  0  0  0
   -9.2210   15.2700    2.4030 S   0  0  0  0  0  0  0  0  0  0  0  0
   -8.1170   15.4490    3.7900 C   0  0  0  0  0  0  0  0  0  0  0  0
  -10.3280   14.4570    2.8690 O   0  0  0  0  0  0  0  0  0  0  0  0
   -9.5040   16.5930    1.8860 O   0  0  0  0  0  0  0  0  0  0  0  0
  1  2  1  0
  2  3  1  0
  2  4  2  0
  4  5  1  0
  3  6  1  0
  4  7  1  0
  6  7  2  0
  5  8  2  0
  5  9  1  0
 10  7  1  1
 10 11  1  0
 10 12  1  0
 11 13  2  0
 12 14  2  0
 15 13  1  6
 14 15  1  0
 15 16  1  0
 15 17  1  0
 16 18  1  0
 17 19  1  0
 18 19  1  0
 18 20  1  6
 21 20  1  0
 21 22  1  0
 21 23  2  0
 21 24  2  0
M  END
