mac-x0584-mac-x0123
     RDKit          3D

 30 36  0  0  0  0  0  0  0  0999 V2000
    0.4750   11.3400   -3.2880 C   0  0  0  0  0  0  0  0  0  0  0  0
   -0.4360   12.4220   -2.6980 C   0  0  0  0  0  0  0  0  0  0  0  0
    0.2760   13.4240   -3.6410 C   0  0  0  0  0  0  0  0  0  0  0  0
    1.4870   12.4590   -3.6060 C   0  0  0  0  0  0  0  0  0  0  0  0
    0.5440   14.9110   -3.3340 C   0  0  1  0  0  0  0  0  0  0  0  0
    0.2670   15.6290   -4.6660 C   0  0  0  0  0  0  0  0  0  0  0  0
   -0.4050   15.6390   -2.4590 N   0  0  0  0  0  0  0  0  0  0  0  0
   -1.6600   15.7040   -3.2530 C   0  0  0  0  0  0  0  0  0  0  0  0
   -1.2510   15.6580   -4.7260 C   0  0  0  0  0  0  0  0  0  0  0  0
   -0.6560   15.2980   -1.0960 C   0  0  0  0  0  0  0  0  0  0  0  0
    0.2030   14.9870   -0.1110 N   0  0  0  0  0  0  0  0  0  0  0  0
   -1.9600   15.2610   -0.7570 C   0  0  0  0  0  0  0  0  0  0  0  0
   -0.3130   14.6650    1.1200 C   0  0  0  0  0  0  0  0  0  0  0  0
   -2.4430   14.8860    0.5200 C   0  0  0  0  0  0  0  0  0  0  0  0
   -2.9830   15.5650   -1.5960 C   0  0  0  0  0  0  0  0  0  0  0  0
   -1.6100   14.5800    1.5380 N   0  0  0  0  0  0  0  0  0  0  0  0
   -3.8520   14.9090    0.3160 N   0  0  0  0  0  0  0  0  0  0  0  0
   -4.0660   15.3580   -0.9430 C   0  0  0  0  0  0  0  0  0  0  0  0
   -5.1810   14.7470    0.5860 C   0  0  0  0  0  0  0  0  0  0  0  0
   -5.3250   14.5910   -0.7930 N   0  0  0  0  0  0  0  0  0  0  0  0
   -6.3040   14.6520    1.3440 C   0  0  0  0  0  0  0  0  0  0  0  0
   -6.4800   14.3830   -1.4890 C   0  0  0  0  0  0  0  0  0  0  0  0
   -7.5390   14.4230    0.4770 C   0  0  0  0  0  0  0  0  0  0  0  0
   -6.8310   14.6850    2.7440 C   0  0  0  0  0  0  0  0  0  0  0  0
   -4.2830   14.6190   -1.6880 N   0  0  0  0  0  0  0  0  0  0  0  0
   -7.6370   14.3050   -0.8180 N   0  0  0  0  0  0  0  0  0  0  0  0
   -8.7730   14.3340    1.3050 C   0  0  0  0  0  0  0  0  0  0  0  0
   -8.3250   14.9620    2.6110 C   0  0  0  0  0  0  0  0  0  0  0  0
   -6.2090   14.2880   -2.7840 N   0  0  0  0  0  0  0  0  0  0  0  0
   -4.8670   14.4390   -2.8520 C   0  0  0  0  0  0  0  0  0  0  0  0
  1  2  1  0
  2  3  1  0
  1  4  1  0
  3  4  1  0
  5  3  1  6
  5  6  1  0
  5  7  1  0
  7  8  1  0
  6  9  1  0
  8  9  1  0
  7 10  1  0
 10 11  2  0
 10 12  1  0
 11 13  1  0
 12 14  2  0
 12 15  1  0
 13 16  2  0
 14 16  1  0
 14 17  1  0
 15 18  2  0
 17 18  1  0
 17 19  1  0
 19 20  1  0
 19 21  2  0
 20 22  1  0
 21 23  1  0
 21 24  1  0
 20 25  1  0
 22 26  1  0
 23 26  2  0
 23 27  1  0
 24 28  1  0
 27 28  1  0
 22 29  2  0
 25 30  2  0
 29 30  1  0
M  END
