mac-x0347-mac-x0223
     RDKit          3D

 25 27  0  0  0  0  0  0  0  0999 V2000
    0.8560   13.7900   -3.9350 O   0  0  0  0  0  0  0  0  0  0  0  0
    0.2770   13.3300   -2.7060 C   0  0  0  0  0  0  0  0  0  0  0  0
    1.0640   13.5330   -1.5570 O   0  0  0  0  0  0  0  0  0  0  0  0
    0.0580   14.8250   -4.3190 C   0  0  0  0  0  0  0  0  0  0  0  0
    0.1740   11.9140   -2.8140 O   0  0  0  0  0  0  0  0  0  0  0  0
   -1.1190   13.9230   -2.6010 C   0  0  0  0  0  0  0  0  0  0  0  0
   -1.2840   14.6330   -4.6870 C   0  0  0  0  0  0  0  0  0  0  0  0
    0.6070   16.0880   -4.3120 C   0  0  0  0  0  0  0  0  0  0  0  0
   -1.9050   13.9960   -1.4430 C   0  0  0  0  0  0  0  0  0  0  0  0
   -1.6940   14.4400   -3.7530 C   0  0  0  0  0  0  0  0  0  0  0  0
   -0.1840   17.1700   -4.6430 C   0  0  0  0  0  0  0  0  0  0  0  0
   -2.0840   15.7370   -5.0170 C   0  0  0  0  0  0  0  0  0  0  0  0
    0.2590   18.4310   -4.6690 O   0  0  0  0  0  0  0  0  0  0  0  0
   -3.1910   14.5600   -1.5060 C   0  0  0  0  0  0  0  0  0  0  0  0
   -2.9240   14.9960   -3.8490 N   0  0  0  0  0  0  0  0  0  0  0  0
   -1.5220   16.9990   -4.9750 C   0  0  0  0  0  0  0  0  0  0  0  0
    1.2470   18.5830   -5.6620 C   0  0  0  0  0  0  0  0  0  0  0  0
   -2.2630   18.1120   -5.2460 O   0  0  0  0  0  0  0  0  0  0  0  0
   -3.6360   15.0370   -2.7240 C   0  0  0  0  0  0  0  0  0  0  0  0
   -4.0650   14.6440   -0.3550 C   0  0  0  0  0  0  0  0  0  0  0  0
   -3.7130   15.3320    0.8060 C   0  0  0  0  0  0  0  0  0  0  0  0
   -5.3090   14.0060   -0.4200 C   0  0  0  0  0  0  0  0  0  0  0  0
   -4.5950   15.3730    1.8780 C   0  0  0  0  0  0  0  0  0  0  0  0
   -6.1910   14.0450    0.6520 C   0  0  0  0  0  0  0  0  0  0  0  0
   -5.8280   14.7320    1.8020 C   0  0  0  0  0  0  0  0  0  0  0  0
  2  1  1  0
  2  3  1  0
  1  4  1  0
  2  5  1  0
  2  6  1  0
  4  7  2  0
  4  8  1  0
  6  9  2  0
  6 10  1  0
  8 11  2  0
  7 12  1  0
 11 13  1  0
  9 14  1  0
 10 15  2  0
 11 16  1  0
 12 16  2  0
 13 17  1  0
 16 18  1  0
 14 19  2  0
 15 19  1  0
 14 20  1  0
 20 21  2  0
 20 22  1  0
 21 23  1  0
 22 24  2  0
 23 25  2  0
 24 25  1  0
M  END
