mac-x0564-diamond-x0950_1_A
     RDKit          3D

 19 21  0  0  0  0  0  0  0  0999 V2000
    0.8260   13.7120   -2.7270 N   0  0  0  0  0  0  0  0  0  0  0  0
    0.7230   12.4010   -2.6330 C   0  0  0  0  0  0  0  0  0  0  0  0
    1.0940   12.0690   -4.0860 C   0  0  2  0  0  0  0  0  0  0  0  0
   -0.0820   14.5420   -2.5230 C   0  0  0  0  0  0  0  0  0  0  0  0
    0.4190   11.6100   -1.7350 O   0  0  0  0  0  0  0  0  0  0  0  0
   -1.4170   14.6390   -2.0510 C   0  0  0  0  0  0  0  0  0  0  0  0
    0.2880   15.6910   -3.0970 N   0  0  0  0  0  0  0  0  0  0  0  0
    0.9610   13.3100   -4.9720 C   0  0  0  0  0  0  0  0  0  0  0  0
    0.3240   11.0240   -4.6800 O   0  0  0  0  0  0  0  0  0  0  0  0
   -2.3070   14.8890   -3.0090 C   0  0  0  0  0  0  0  0  0  0  0  0
   -0.6270   15.8470   -4.0370 C   0  0  0  0  0  0  0  0  0  0  0  0
   -1.9950   14.5620   -0.8190 O   0  0  0  0  0  0  0  0  0  0  0  0
   -1.7430   15.0070   -4.2320 N   0  0  0  0  0  0  0  0  0  0  0  0
   -3.3360   14.7830   -1.0580 C   0  0  0  0  0  0  0  0  0  0  0  0
   -3.5700   14.9730   -2.4260 C   0  0  0  0  0  0  0  0  0  0  0  0
   -4.8710   15.1910   -2.8590 C   0  0  0  0  0  0  0  0  0  0  0  0
   -4.3460   14.8240   -0.0950 C   0  0  0  0  0  0  0  0  0  0  0  0
   -5.9050   15.2410   -1.9200 C   0  0  0  0  0  0  0  0  0  0  0  0
   -5.6450   15.0640   -0.5630 C   0  0  0  0  0  0  0  0  0  0  0  0
  1  2  1  0
  2  3  1  0
  1  4  2  3
  2  5  2  0
  4  6  1  0
  4  7  1  0
  3  8  1  6
  3  9  1  0
  6 10  2  0
  7 11  2  0
  6 12  1  0
 10 13  1  0
 11 13  1  0
 12 14  1  0
 10 15  1  0
 14 15  2  0
 15 16  1  0
 14 17  1  0
 16 18  2  0
 17 19  2  0
 18 19  1  0
M  END
