mac-x0354-diamond-x0910_0_A
     RDKit          3D

 24 26  0  0  0  0  0  0  0  0999 V2000
    0.6360   11.0100   -8.3800 C   0  0  0  0  0  0  0  0  0  0  0  0
    0.9080   11.4740   -7.0340 N   0  0  0  0  0  0  0  0  0  0  0  0
    1.8920   12.3500   -6.8130 N   0  0  0  0  0  0  0  0  0  0  0  0
    0.2550   11.1110   -5.9010 C   0  0  0  0  0  0  0  0  0  0  0  0
    1.8770   12.5580   -5.5270 C   0  0  0  0  0  0  0  0  0  0  0  0
    0.8840   11.8170   -4.8820 C   0  0  0  0  0  0  0  0  0  0  0  0
   -0.8340   10.1680   -5.9280 C   0  0  0  0  0  0  0  0  0  0  0  0
    0.6870   11.8860   -3.4830 C   0  0  0  0  0  0  0  0  0  0  0  0
   -0.6290    8.9090   -6.5010 C   0  0  0  0  0  0  0  0  0  0  0  0
   -2.0750   10.4990   -5.3940 C   0  0  0  0  0  0  0  0  0  0  0  0
    1.0790   12.9980   -3.0360 N   0  0  0  0  0  0  0  0  0  0  0  0
    0.1250   10.8400   -2.8320 O   0  0  0  0  0  0  0  0  0  0  0  0
   -1.6660    7.9850   -6.5380 C   0  0  0  0  0  0  0  0  0  0  0  0
   -3.1140    9.5710   -5.4310 C   0  0  0  0  0  0  0  0  0  0  0  0
    1.0260   13.5580   -1.7260 C   0  0  0  0  0  0  0  0  0  0  0  0
   -2.9070    8.3160   -6.0030 C   0  0  0  0  0  0  0  0  0  0  0  0
    0.3620   14.9000   -2.0150 C   0  0  0  0  0  0  0  0  0  0  0  0
   -1.0020   14.7400   -2.7160 C   0  0  0  0  0  0  0  0  0  0  0  0
   -2.1300   14.7110   -1.7830 N   0  0  0  0  0  0  0  0  0  0  0  0
   -1.6950   14.6860   -0.5090 C   0  0  0  0  0  0  0  0  0  0  0  0
   -2.4520   14.7470    0.6200 N   0  0  0  0  0  0  0  0  0  0  0  0
   -0.4350   14.6000   -0.1870 N   0  0  0  0  0  0  0  0  0  0  0  0
   -1.6600   14.6980    1.7000 N   0  0  0  0  0  0  0  0  0  0  0  0
   -0.4520   14.6100    1.1600 C   0  0  0  0  0  0  0  0  0  0  0  0
  1  2  1  0
  2  3  1  0
  2  4  1  0
  3  5  2  0
  4  6  2  0
  5  6  1  0
  4  7  1  0
  6  8  1  0
  7  9  2  0
  7 10  1  0
  8 11  2  3
  8 12  1  0
  9 13  1  0
 10 14  2  0
 11 15  1  0
 13 16  2  0
 14 16  1  0
 15 17  1  0
 17 18  1  0
 18 19  1  0
 19 20  1  0
 20 21  1  0
 20 22  2  0
 21 23  1  0
 22 24  1  0
 23 24  2  0
M  END
