mac-x0338-mac-x0137
     RDKit          3D

 21 23  0  0  0  0  0  0  0  0999 V2000
   -3.7800   15.0680    2.0510 N   0  0  0  0  0  0  0  0  0  0  0  0
   -4.7400   14.7930    1.1440 C   0  0  0  0  0  0  0  0  0  0  0  0
   -5.9290   14.8780    1.4520 O   0  0  0  0  0  0  0  0  0  0  0  0
   -4.2520   14.3690   -0.2400 C   0  0  2  0  0  0  0  0  0  0  0  0
   -2.7940   14.9070   -0.7020 C   0  0  1  0  0  0  0  0  0  0  0  0
   -5.4220   14.8120   -1.1530 C   0  0  0  0  0  0  0  0  0  0  0  0
   -2.8890   15.6280   -2.0450 C   0  0  0  0  0  0  0  0  0  0  0  0
   -5.0130   14.7520   -2.5380 N   0  0  0  0  0  0  0  0  0  0  0  0
   -2.2170   15.8480    0.3680 C   0  0  0  0  0  0  0  0  0  0  0  0
   -1.5690   13.8500   -0.8860 C   0  0  1  0  0  0  0  0  0  0  0  0
   -3.9290   15.5010   -2.8570 C   0  0  0  0  0  0  0  0  0  0  0  0
   -1.2190   13.3410   -2.2440 N   0  0  0  0  0  0  0  0  0  0  0  0
   -0.3120   14.4170   -0.3840 N   0  0  0  0  0  0  0  0  0  0  0  0
   -1.5370   15.1280    1.4450 N   0  0  0  0  0  0  0  0  0  0  0  0
   -1.5360   14.1830   -3.4130 C   0  0  0  0  0  0  0  0  0  0  0  0
    0.1540   12.8870   -2.4750 C   0  0  0  0  0  0  0  0  0  0  0  0
   -0.2730   14.5920    1.0320 C   0  0  0  0  0  0  0  0  0  0  0  0
   -1.6780   13.3520   -4.6880 C   0  0  2  0  0  0  0  0  0  0  0  0
    0.2570   11.9540   -3.6830 C   0  0  0  0  0  0  0  0  0  0  0  0
   -2.7750   12.5670   -4.5280 F   0  0  0  0  0  0  0  0  0  0  0  0
   -0.4740   12.4490   -4.9470 C   0  0  0  0  0  0  0  0  0  0  0  0
  1  2  1  0
  2  3  2  0
  4  2  1  1
  4  5  1  0
  4  6  1  0
  5  7  1  6
  6  8  1  0
  5  9  1  0
  5 10  1  0
  7 11  2  0
  8 11  1  0
 10 12  1  6
 10 13  1  0
  9 14  1  0
 12 15  1  0
 12 16  1  0
 13 17  1  0
 14 17  1  0
 15 18  1  0
 16 19  1  0
 18 20  1  1
 18 21  1  0
 19 21  1  0
M  END
