mac-x0411-diamond-x0592_0_A
     RDKit          3D

 26 27  0  0  0  0  0  0  0  0999 V2000
    0.4960    9.0670   -7.8400 Cl  0  0  0  0  0  0  0  0  0  0  0  0
   -0.7060    9.7140   -6.7720 C   0  0  0  0  0  0  0  0  0  0  0  0
   -0.5280   10.9030   -6.0220 C   0  0  0  0  0  0  0  0  0  0  0  0
   -1.8930    8.9870   -6.6870 C   0  0  0  0  0  0  0  0  0  0  0  0
    0.6520   11.6160   -6.1170 O   0  0  0  0  0  0  0  0  0  0  0  0
   -1.5800   11.3680   -5.1650 C   0  0  0  0  0  0  0  0  0  0  0  0
   -2.9190    9.4270   -5.8640 C   0  0  0  0  0  0  0  0  0  0  0  0
   -1.4840   12.6430   -4.3020 C   0  0  0  0  0  0  0  0  0  0  0  0
    1.0700   12.4510   -5.0340 C   0  0  0  0  0  0  0  0  0  0  0  0
   -2.7690   10.5980   -5.1150 C   0  0  0  0  0  0  0  0  0  0  0  0
    0.9530   11.9230   -3.6040 C   0  0  0  0  0  0  0  0  0  0  0  0
   -2.7310   13.4450   -3.8440 C   0  0  0  0  0  0  0  0  0  0  0  0
    1.4540   12.7840   -2.6940 O   0  0  0  0  0  0  0  0  0  0  0  0
    0.4760   10.8500   -3.2660 O   0  0  0  0  0  0  0  0  0  0  0  0
   -3.3030   13.1550   -2.4300 C   0  0  0  0  0  0  0  0  0  0  0  0
   -2.6300   13.8720   -1.3140 N   0  0  0  0  0  0  0  0  0  0  0  0
   -3.2990   14.5180   -0.4030 C   0  0  0  0  0  0  0  0  0  0  0  0
   -2.6660   15.1240    0.6490 N   0  0  0  0  0  0  0  0  0  0  0  0
   -4.7380   14.6670   -0.3670 C   0  0  0  0  0  0  0  0  0  0  0  0
   -5.5920   15.1400   -1.3920 C   0  0  0  0  0  0  0  0  0  0  0  0
   -5.6060   14.3760    0.6730 C   0  0  0  0  0  0  0  0  0  0  0  0
   -6.8780   15.1450   -1.0390 N   0  0  0  0  0  0  0  0  0  0  0  0
   -6.8620   14.6770    0.2220 N   0  0  0  0  0  0  0  0  0  0  0  0
   -8.1250   14.5450    0.9390 C   0  0  0  0  0  0  0  0  0  0  0  0
   -7.9280   14.0260    2.3580 C   0  0  0  0  0  0  0  0  0  0  0  0
   -7.2820   14.9810    3.1930 O   0  0  0  0  0  0  0  0  0  0  0  0
  1  2  1  0
  2  3  2  0
  2  4  1  0
  3  5  1  0
  3  6  1  0
  4  7  2  0
  6  8  1  0
  5  9  1  0
  6 10  2  0
  7 10  1  0
  9 11  1  0
  8 12  1  0
 11 13  1  0
 11 14  2  0
 12 15  1  0
 15 16  1  0
 16 17  2  3
 17 18  1  0
 17 19  1  0
 19 20  1  0
 19 21  2  0
 20 22  2  0
 21 23  1  0
 22 23  1  0
 23 24  1  0
 24 25  1  0
 25 26  1  0
M  END
