mac-x0182-diamond-x0900_1_A
     RDKit          3D

 13 14  0  0  0  0  0  0  0  0999 V2000
    1.5380   11.6000   -7.5360 O   0  0  0  0  0  0  0  0  0  0  0  0
    0.7670   11.2530   -6.7320 C   0  0  0  0  0  0  0  0  0  0  0  0
    0.7500   11.8660   -5.4660 N   0  0  0  0  0  0  0  0  0  0  0  0
   -0.2340   10.1530   -6.8660 C   0  0  1  0  0  0  0  0  0  0  0  0
   -0.5640   11.3810   -4.5700 S   0  0  0  0  0  0  0  0  0  0  0  0
   -1.3590   10.5390   -5.9280 C   0  0  2  0  0  0  0  0  0  0  0  0
   -0.8680    9.7720   -8.1650 C   0  0  0  0  0  0  0  0  0  0  0  0
   -1.2500   12.6150   -4.2900 O   0  0  0  0  0  0  0  0  0  0  0  0
   -0.1100   10.4560   -3.5550 O   0  0  0  0  0  0  0  0  0  0  0  0
   -0.6350   10.2820   -9.2590 O   0  0  0  0  0  0  0  0  0  0  0  0
   -2.1190    9.2940   -5.6150 C   0  0  0  0  0  0  0  0  0  0  0  0
   -1.8810    8.6280   -8.0390 C   0  0  0  0  0  0  0  0  0  0  0  0
   -2.3500    8.4190   -6.6120 C   0  0  0  0  0  0  0  0  0  0  0  0
  1  2  2  0
  2  3  1  0
  4  2  1  6
  5  3  1  0
  4  6  1  0
  5  6  1  0
  4  7  1  0
  5  8  2  0
  5  9  2  0
  7 10  2  0
  6 11  1  1
  7 12  1  0
 11 13  2  0
 12 13  1  0
M  END
