mac-x0223-diamond-x0950_1_A
     RDKit          3D

 15 15  0  0  0  0  0  0  0  0999 V2000
    1.2470   18.4570   -5.7710 C   0  0  0  0  0  0  0  0  0  0  0  0
    0.1620   18.2860   -4.8860 O   0  0  0  0  0  0  0  0  0  0  0  0
   -0.2320   16.9970   -4.7360 C   0  0  0  0  0  0  0  0  0  0  0  0
   -1.6020   16.8260   -4.7540 C   0  0  0  0  0  0  0  0  0  0  0  0
    0.5980   15.9020   -4.5740 C   0  0  0  0  0  0  0  0  0  0  0  0
   -2.3780   17.9400   -4.9010 O   0  0  0  0  0  0  0  0  0  0  0  0
   -2.1850   15.5710   -4.6190 C   0  0  0  0  0  0  0  0  0  0  0  0
    0.0530   14.6130   -4.4290 C   0  0  0  0  0  0  0  0  0  0  0  0
    0.9920   13.4250   -4.2440 C   0  0  1  0  0  0  0  0  0  0  0  0
   -1.3480   14.4580   -4.4560 C   0  0  0  0  0  0  0  0  0  0  0  0
    0.6420   12.5440   -3.0500 C   0  0  0  0  0  0  0  0  0  0  0  0
    1.1320   12.5880   -5.5090 C   0  0  0  0  0  0  0  0  0  0  0  0
    0.1840   11.4190   -3.1150 O   0  0  0  0  0  0  0  0  0  0  0  0
    0.8930   13.1350   -1.8570 O   0  0  0  0  0  0  0  0  0  0  0  0
    0.3830   11.3840   -5.3730 O   0  0  0  0  0  0  0  0  0  0  0  0
  1  2  1  0
  2  3  1  0
  3  4  2  0
  3  5  1  0
  4  6  1  0
  4  7  1  0
  5  8  2  0
  8  9  1  0
  7 10  2  0
  8 10  1  0
  9 11  1  0
  9 12  1  6
 11 13  2  0
 11 14  1  0
 12 15  1  0
M  END
