mac-x1493-mac-x0412
     RDKit          3D

 14 15  0  0  0  0  0  0  0  0999 V2000
   -1.1920   14.6290   -1.7280 O   0  0  0  0  0  0  0  0  0  0  0  0
   -2.2810   14.8560   -2.4890 C   0  0  0  0  0  0  0  0  0  0  0  0
   -2.1890   14.8290   -3.7020 O   0  0  0  0  0  0  0  0  0  0  0  0
   -3.5210   15.1390   -1.6710 C   0  0  2  0  0  0  0  0  0  0  0  0
   -3.3990   14.5120   -0.2780 C   0  0  0  0  0  0  0  0  0  0  0  0
   -4.7510   14.6550   -2.4130 C   0  0  0  0  0  0  0  0  0  0  0  0
   -4.7230   14.2430    0.4660 C   0  0  2  0  0  0  0  0  0  0  0  0
   -5.9510   14.9650   -1.6600 N   0  0  0  0  0  0  0  0  0  0  0  0
   -5.9940   14.1650   -0.4280 C   0  0  2  0  0  0  0  0  0  0  0  0
   -4.8370   15.1830    1.6610 C   0  0  0  0  0  0  0  0  0  0  0  0
   -7.2920   14.5230    0.3070 C   0  0  0  0  0  0  0  0  0  0  0  0
   -6.1380   15.0120    2.3770 C   0  0  0  0  0  0  0  0  0  0  0  0
   -8.3540   14.6830   -0.2810 O   0  0  0  0  0  0  0  0  0  0  0  0
   -7.2750   14.7010    1.7730 C   0  0  0  0  0  0  0  0  0  0  0  0
  1  2  1  0
  2  3  2  0
  4  2  1  6
  4  5  1  0
  4  6  1  0
  7  5  1  6
  6  8  1  0
  7  9  1  0
  9  8  1  6
  7 10  1  0
  9 11  1  0
 10 12  1  0
 11 13  2  0
 11 14  1  0
 12 14  2  0
M  END
