mac-x0380-mac-x0361
     RDKit          3D

 17 18  0  0  0  0  0  0  0  0999 V2000
   -1.7280   14.7170   -2.3700 O   0  0  0  0  0  0  0  0  0  0  0  0
   -3.0600   14.8390   -2.5220 C   0  0  0  0  0  0  0  0  0  0  0  0
   -3.5640   14.8830   -3.6270 O   0  0  0  0  0  0  0  0  0  0  0  0
   -3.7510   14.9240   -1.1990 C   0  0  0  0  0  0  0  0  0  0  0  0
   -5.1440   14.8090   -0.9790 C   0  0  0  0  0  0  0  0  0  0  0  0
   -2.9790   15.1280   -0.0390 C   0  0  0  0  0  0  0  0  0  0  0  0
   -6.2480   14.5670   -1.8310 C   0  0  0  0  0  0  0  0  0  0  0  0
   -5.7310   14.9020    0.2110 C   0  0  0  0  0  0  0  0  0  0  0  0
   -3.6010   15.2170    1.2240 C   0  0  0  0  0  0  0  0  0  0  0  0
   -6.7990   13.3560   -1.5740 N   0  0  0  0  0  0  0  0  0  0  0  0
   -6.6860   15.3620   -2.6000 O   0  0  0  0  0  0  0  0  0  0  0  0
   -4.9970   15.1060    1.3380 C   0  0  0  0  0  0  0  0  0  0  0  0
   -7.5180   14.7320    0.2040 S   0  0  0  0  0  0  0  0  0  0  0  0
   -5.6520   15.1910    2.5690 N   0  0  0  0  0  0  0  0  0  0  0  0
   -7.6150   13.9170    1.7770 C   0  0  0  0  0  0  0  0  0  0  0  0
   -6.9700   14.8140    2.7780 C   0  0  0  0  0  0  0  0  0  0  0  0
   -7.6020   15.2220    3.7510 O   0  0  0  0  0  0  0  0  0  0  0  0
  1  2  1  0
  2  3  2  0
  2  4  1  0
  4  5  2  0
  4  6  1  0
  5  7  1  0
  5  8  1  0
  6  9  2  0
  7 10  1  0
  7 11  2  0
  8 12  2  0
  9 12  1  0
  8 13  1  0
 12 14  1  0
 13 15  1  0
 14 16  1  0
 15 16  1  0
 16 17  2  0
M  END
