mac-x0394-mac-x0392
     RDKit          3D

 21 22  0  0  0  0  0  0  0  0999 V2000
    1.0820   18.4000   -5.2500 Cl  0  0  0  0  0  0  0  0  0  0  0  0
    0.4280   16.8470   -5.0490 C   0  0  0  0  0  0  0  0  0  0  0  0
   -0.9240   16.7120   -5.2890 C   0  0  0  0  0  0  0  0  0  0  0  0
    1.2270   15.7680   -4.6590 C   0  0  0  0  0  0  0  0  0  0  0  0
    0.6700   14.5130   -4.5110 C   0  0  0  0  0  0  0  0  0  0  0  0
   -1.5000   15.4720   -5.1500 C   0  0  0  0  0  0  0  0  0  0  0  0
   -3.1890   15.3030   -5.4520 Cl  0  0  0  0  0  0  0  0  0  0  0  0
    1.4610   13.2940   -4.0590 C   0  0  0  0  0  0  0  0  0  0  0  0
   -0.7210   14.3750   -4.7710 C   0  0  0  0  0  0  0  0  0  0  0  0
    0.3650   12.8150   -3.1930 C   0  0  0  0  0  0  0  0  0  0  0  0
    0.2560   11.5060   -2.8470 O   0  0  0  0  0  0  0  0  0  0  0  0
   -0.4870   13.7290   -2.9110 N   0  0  0  0  0  0  0  0  0  0  0  0
   -1.6900   13.7400   -2.3130 C   0  0  0  0  0  0  0  0  0  0  0  0
   -2.6850   13.4540   -2.9520 O   0  0  0  0  0  0  0  0  0  0  0  0
   -1.8790   14.1560   -0.9120 C   0  0  0  0  0  0  0  0  0  0  0  0
   -0.8590   14.1140    0.0320 C   0  0  0  0  0  0  0  0  0  0  0  0
   -3.1660   14.5970   -0.5720 C   0  0  0  0  0  0  0  0  0  0  0  0
    0.4420   13.6920   -0.2610 N   0  0  0  0  0  0  0  0  0  0  0  0
   -3.3950   14.9740    0.7260 C   0  0  0  0  0  0  0  0  0  0  0  0
   -1.2080   14.5150    1.3040 C   0  0  0  0  0  0  0  0  0  0  0  0
   -2.4330   14.9360    1.6720 N   0  0  0  0  0  0  0  0  0  0  0  0
  1  2  1  0
  2  3  2  0
  2  4  1  0
  4  5  2  0
  3  6  1  0
  6  7  1  0
  5  8  1  0
  5  9  1  0
  6  9  2  0
  8 10  1  0
 10 11  1  0
 10 12  2  3
 12 13  1  0
 13 14  2  0
 13 15  1  0
 15 16  2  0
 15 17  1  0
 16 18  1  0
 17 19  2  0
 16 20  1  0
 19 21  1  0
 20 21  2  0
M  END
