mac-x0344-mac-x0567
     RDKit          3D

 24 26  0  0  0  0  0  0  0  0999 V2000
    2.5440   12.8430   -4.9040 O   0  0  0  0  0  0  0  0  0  0  0  0
    1.5080   12.9900   -4.0780 C   0  0  0  0  0  0  0  0  0  0  0  0
    1.3860   13.9530   -3.2510 N   0  0  0  0  0  0  0  0  0  0  0  0
    0.4790   11.8560   -4.2540 C   0  0  0  0  0  0  0  0  0  0  0  0
    0.1100   11.2060   -3.2810 O   0  0  0  0  0  0  0  0  0  0  0  0
    0.0970   11.7210   -5.5770 N   0  0  0  0  0  0  0  0  0  0  0  0
    0.2150   14.0640   -2.4050 C   0  0  0  0  0  0  0  0  0  0  0  0
    0.2370   12.9950   -1.3180 C   0  0  0  0  0  0  0  0  0  0  0  0
   -0.7170   10.7200   -6.1350 C   0  0  0  0  0  0  0  0  0  0  0  0
    0.0770   13.6140    0.0040 N   0  0  0  0  0  0  0  0  0  0  0  0
   -0.3910   10.0550   -7.3140 C   0  0  0  0  0  0  0  0  0  0  0  0
   -1.9030   10.3830   -5.4670 C   0  0  0  0  0  0  0  0  0  0  0  0
   -1.2360    9.0670   -7.8230 C   0  0  0  0  0  0  0  0  0  0  0  0
   -2.7470    9.3950   -5.9750 C   0  0  0  0  0  0  0  0  0  0  0  0
   -1.1050   14.1670    0.4040 C   0  0  0  0  0  0  0  0  0  0  0  0
   -2.4140    8.7360   -7.1540 C   0  0  0  0  0  0  0  0  0  0  0  0
   -1.4500   14.3990    1.7000 N   0  0  0  0  0  0  0  0  0  0  0  0
   -2.1990   14.6050   -0.3090 C   0  0  0  0  0  0  0  0  0  0  0  0
   -2.6690   14.9390    1.8740 N   0  0  0  0  0  0  0  0  0  0  0  0
   -3.1610   15.0820    0.6440 C   0  0  0  0  0  0  0  0  0  0  0  0
   -2.3580   14.5930   -1.6950 C   0  0  0  0  0  0  0  0  0  0  0  0
   -4.3930   15.5950    0.2310 C   0  0  0  0  0  0  0  0  0  0  0  0
   -3.6060   15.1190   -2.0830 C   0  0  0  0  0  0  0  0  0  0  0  0
   -4.5820   15.5990   -1.1650 C   0  0  0  0  0  0  0  0  0  0  0  0
  1  2  1  0
  2  3  2  3
  2  4  1  0
  4  5  2  0
  4  6  1  0
  3  7  1  0
  7  8  1  0
  6  9  1  0
  8 10  1  0
  9 11  2  0
  9 12  1  0
 11 13  1  0
 12 14  2  0
 10 15  1  0
 13 16  2  0
 14 16  1  0
 15 17  1  0
 15 18  2  0
 17 19  1  0
 18 20  1  0
 19 20  2  0
 18 21  1  0
 20 22  1  0
 21 23  2  0
 22 24  2  0
 23 24  1  0
M  END
