mac-x0223-mac-x0387
     RDKit          3D

 25 27  0  0  0  0  0  0  0  0999 V2000
    1.2220   18.4680   -5.7250 C   0  0  0  0  0  0  0  0  0  0  0  0
    0.2620   18.1900   -4.7280 O   0  0  0  0  0  0  0  0  0  0  0  0
   -0.2330   16.9210   -4.7850 C   0  0  0  0  0  0  0  0  0  0  0  0
   -1.6110   16.8730   -4.8850 C   0  0  0  0  0  0  0  0  0  0  0  0
    0.5040   15.7360   -4.7540 C   0  0  0  0  0  0  0  0  0  0  0  0
   -2.3040   18.0540   -4.9030 O   0  0  0  0  0  0  0  0  0  0  0  0
   -2.2910   15.6670   -4.9610 C   0  0  0  0  0  0  0  0  0  0  0  0
   -0.1520   14.4830   -4.8220 C   0  0  0  0  0  0  0  0  0  0  0  0
    0.6240   13.1660   -4.7790 C   0  0  0  0  0  0  0  0  0  0  0  0
   -1.5570   14.4680   -4.9300 C   0  0  0  0  0  0  0  0  0  0  0  0
    0.4680   12.3250   -3.5090 C   0  0  0  0  0  0  0  0  0  0  0  0
    0.0300   11.1880   -3.4230 O   0  0  0  0  0  0  0  0  0  0  0  0
    0.8930   13.0390   -2.4450 O   0  0  0  0  0  0  0  0  0  0  0  0
    0.5590   14.4210   -2.5200 C   0  0  0  0  0  0  0  0  0  0  0  0
   -0.8630   14.6500   -2.0460 C   0  0  0  0  0  0  0  0  0  0  0  0
   -1.1330   14.6510   -0.6870 C   0  0  0  0  0  0  0  0  0  0  0  0
   -1.9170   14.8710   -2.9600 C   0  0  0  0  0  0  0  0  0  0  0  0
   -2.4490   14.8930   -0.2260 C   0  0  0  0  0  0  0  0  0  0  0  0
   -0.1260   14.4240    0.2450 C   0  0  0  0  0  0  0  0  0  0  0  0
   -3.2240   15.1030   -2.5240 C   0  0  0  0  0  0  0  0  0  0  0  0
   -2.6500   14.9010    1.1580 C   0  0  0  0  0  0  0  0  0  0  0  0
   -0.4290   14.4350    1.5710 C   0  0  0  0  0  0  0  0  0  0  0  0
   -3.4840   15.1180   -1.1640 C   0  0  0  0  0  0  0  0  0  0  0  0
   -3.9170   15.1660    1.6940 N   0  0  0  0  0  0  0  0  0  0  0  0
   -1.6640   14.6700    2.0370 N   0  0  0  0  0  0  0  0  0  0  0  0
  1  2  1  0
  2  3  1  0
  3  4  2  0
  3  5  1  0
  4  6  1  0
  4  7  1  0
  5  8  2  0
  8  9  1  0
  7 10  2  0
  8 10  1  0
  9 11  1  0
 11 12  2  0
 11 13  1  0
 13 14  1  0
 14 15  1  0
 15 16  1  0
 15 17  2  0
 16 18  2  0
 16 19  1  0
 17 20  1  0
 18 21  1  0
 19 22  2  0
 18 23  1  0
 20 23  2  0
 21 24  1  0
 21 25  2  0
 22 25  1  0
M  END
