mac-x0326-mac-x0223
     RDKit          3D

 24 26  0  0  0  0  0  0  0  0999 V2000
   -6.3750   15.5620   -1.6820 Cl  0  0  0  0  0  0  0  0  0  0  0  0
   -4.7390   15.2960   -1.2410 C   0  0  0  0  0  0  0  0  0  0  0  0
   -3.7840   15.0030   -2.2120 C   0  0  0  0  0  0  0  0  0  0  0  0
   -4.3980   15.3730    0.1000 C   0  0  0  0  0  0  0  0  0  0  0  0
   -2.4650   14.7810   -1.7910 C   0  0  0  0  0  0  0  0  0  0  0  0
   -3.0950   15.1570    0.5260 C   0  0  0  0  0  0  0  0  0  0  0  0
   -1.4110   14.4780   -2.5900 N   0  0  0  0  0  0  0  0  0  0  0  0
   -2.1350   14.8590   -0.4360 C   0  0  0  0  0  0  0  0  0  0  0  0
   -0.3250   14.3270   -1.8690 C   0  0  0  0  0  0  0  0  0  0  0  0
   -0.4610   14.5470   -0.1960 S   0  0  0  0  0  0  0  0  0  0  0  0
    0.9340   13.9590   -2.5060 C   0  0  0  0  0  0  0  0  0  0  0  0
    0.3560   13.3910   -3.7540 C   0  0  2  0  0  0  0  0  0  0  0  0
    1.3870   12.4960   -4.2980 C   0  0  0  0  0  0  0  0  0  0  0  0
   -0.3360   14.6070   -4.3580 C   0  0  0  0  0  0  0  0  0  0  0  0
    0.8650   11.5680   -5.1130 O   0  0  0  0  0  0  0  0  0  0  0  0
    2.5600   12.5250   -3.9840 O   0  0  0  0  0  0  0  0  0  0  0  0
   -1.6680   14.4840   -4.7850 C   0  0  0  0  0  0  0  0  0  0  0  0
    0.2960   15.8680   -4.4450 C   0  0  0  0  0  0  0  0  0  0  0  0
   -0.4090   16.9780   -4.9270 C   0  0  0  0  0  0  0  0  0  0  0  0
   -2.3650   15.5900   -5.2680 C   0  0  0  0  0  0  0  0  0  0  0  0
    0.0730   18.2470   -5.0430 O   0  0  0  0  0  0  0  0  0  0  0  0
   -1.7310   16.8240   -5.3270 C   0  0  0  0  0  0  0  0  0  0  0  0
    1.2500   18.4090   -5.7930 C   0  0  0  0  0  0  0  0  0  0  0  0
   -2.4010   17.9260   -5.7830 O   0  0  0  0  0  0  0  0  0  0  0  0
  1  2  1  0
  2  3  2  0
  2  4  1  0
  3  5  1  0
  4  6  2  0
  5  7  1  0
  5  8  2  0
  6  8  1  0
  7  9  2  0
  8 10  1  0
  9 10  1  0
  9 11  1  0
 12 11  1  1
 12 13  1  0
 12 14  1  0
 13 15  1  0
 13 16  2  0
 14 17  2  0
 14 18  1  0
 18 19  2  0
 17 20  1  0
 19 21  1  0
 19 22  1  0
 20 22  2  0
 21 23  1  0
 22 24  1  0
M  END
