mac-x0137-mac-x0179
     RDKit          3D

 30 34  0  0  0  0  0  0  0  0999 V2000
   -2.0970   12.2990   -5.2340 N   0  0  0  0  0  0  0  0  0  0  0  0
   -1.9530   13.5130   -4.4810 C   0  0  2  0  0  0  0  0  0  0  0  0
   -0.8700   14.3710   -5.1000 C   0  0  0  0  0  0  0  0  0  0  0  0
   -1.1590   11.5670   -5.6530 C   0  0  0  0  0  0  0  0  0  0  0  0
   -1.7970   13.2760   -2.9940 C   0  0  0  0  0  0  0  0  0  0  0  0
    0.1880   11.6470   -5.5420 N   0  0  0  0  0  0  0  0  0  0  0  0
   -1.3680   10.3590   -6.4770 C   0  0  0  0  0  0  0  0  0  0  0  0
    1.0680   12.3640   -4.6440 C   0  0  0  0  0  0  0  0  0  0  0  0
   -1.0610   14.3420   -2.3000 N   0  0  0  0  0  0  0  0  0  0  0  0
    0.4340   14.3900   -4.3060 C   0  0  0  0  0  0  0  0  0  0  0  0
    0.7110   11.1990   -6.7030 C   0  0  0  0  0  0  0  0  0  0  0  0
   -0.1760   10.1500   -7.1450 C   0  0  0  0  0  0  0  0  0  0  0  0
   -2.4470    9.5180   -6.6570 C   0  0  0  0  0  0  0  0  0  0  0  0
    0.9790   11.8680   -3.2060 C   0  0  0  0  0  0  0  0  0  0  0  0
    1.7020   11.5540   -7.2510 O   0  0  0  0  0  0  0  0  0  0  0  0
    0.2440   14.7510   -2.8420 C   0  0  0  0  0  0  0  0  0  0  0  0
   -1.3200   14.4890   -0.9530 C   0  0  0  0  0  0  0  0  0  0  0  0
    0.0220    9.1110   -8.0280 C   0  0  0  0  0  0  0  0  0  0  0  0
   -2.2780    8.4460   -7.5510 C   0  0  0  0  0  0  0  0  0  0  0  0
    1.6830   12.5830   -2.3090 O   0  0  0  0  0  0  0  0  0  0  0  0
    0.3320   10.8910   -2.8530 O   0  0  0  0  0  0  0  0  0  0  0  0
   -0.3390   14.2450   -0.0100 N   0  0  0  0  0  0  0  0  0  0  0  0
   -2.5040   14.8690   -0.4760 C   0  0  0  0  0  0  0  0  0  0  0  0
   -1.0540    8.2480   -8.2300 C   0  0  0  0  0  0  0  0  0  0  0  0
   -0.6060   14.2870    1.3250 C   0  0  0  0  0  0  0  0  0  0  0  0
   -2.7020   14.9810    0.9800 C   0  0  0  0  0  0  0  0  0  0  0  0
   -3.7720   15.2510   -1.0100 C   0  0  0  0  0  0  0  0  0  0  0  0
   -1.7250   14.6260    1.8620 N   0  0  0  0  0  0  0  0  0  0  0  0
   -3.8840   15.4350    1.2810 N   0  0  0  0  0  0  0  0  0  0  0  0
   -4.5100   15.5790    0.0520 C   0  0  0  0  0  0  0  0  0  0  0  0
  2  1  1  6
  2  3  1  0
  1  4  2  3
  2  5  1  0
  4  6  1  0
  4  7  1  0
  6  8  1  0
  5  9  1  0
  3 10  1  0
  6 11  1  0
  7 12  2  0
 11 12  1  0
  7 13  1  0
  8 14  1  0
 11 15  2  0
  9 16  1  0
 10 16  1  0
  9 17  1  0
 12 18  1  0
 13 19  2  0
 14 20  1  0
 14 21  2  0
 17 22  1  0
 17 23  2  0
 18 24  2  0
 19 24  1  0
 22 25  1  0
 23 26  1  0
 23 27  1  0
 25 28  2  0
 26 28  1  0
 26 29  2  0
 27 30  2  0
 29 30  1  0
M  END
