mac-x0387-mac-x0472
     RDKit          3D

 21 23  0  0  0  0  0  0  0  0999 V2000
   -3.8940   15.6530    2.3040 N   0  0  0  0  0  0  0  0  0  0  0  0
   -3.0020   15.1500    1.3660 C   0  0  0  0  0  0  0  0  0  0  0  0
   -1.8000   14.6600    1.7790 N   0  0  0  0  0  0  0  0  0  0  0  0
   -3.4060   15.1810    0.0360 C   0  0  0  0  0  0  0  0  0  0  0  0
   -2.5480   14.6890   -0.9170 C   0  0  0  0  0  0  0  0  0  0  0  0
   -0.9740   14.1710    0.8150 C   0  0  0  0  0  0  0  0  0  0  0  0
   -4.6440   15.6840   -0.3850 C   0  0  0  0  0  0  0  0  0  0  0  0
   -1.3400   14.1740   -0.5350 C   0  0  0  0  0  0  0  0  0  0  0  0
   -2.9360   14.7240   -2.2660 C   0  0  0  0  0  0  0  0  0  0  0  0
   -5.0190   15.7040   -1.7210 C   0  0  0  0  0  0  0  0  0  0  0  0
   -0.6340   13.6910   -1.6490 N   0  0  0  0  0  0  0  0  0  0  0  0
   -4.1540   15.2230   -2.6740 C   0  0  0  0  0  0  0  0  0  0  0  0
   -1.6790   13.4840   -2.9930 S   0  0  0  0  0  0  0  0  0  0  0  0
   -2.2650   14.7960   -3.2490 O   0  0  0  0  0  0  0  0  0  0  0  0
   -0.9590   12.8450   -4.0600 O   0  0  0  0  0  0  0  0  0  0  0  0
   -3.0260   12.3620   -2.5230 C   0  0  0  0  0  0  0  0  0  0  0  0
   -2.9440   11.0420   -2.9650 C   0  0  0  0  0  0  0  0  0  0  0  0
   -4.1450   12.7580   -1.7510 C   0  0  0  0  0  0  0  0  0  0  0  0
   -3.9520   10.1320   -2.6540 C   0  0  0  0  0  0  0  0  0  0  0  0
   -5.1510   11.8370   -1.4440 C   0  0  0  0  0  0  0  0  0  0  0  0
   -5.0540   10.5280   -1.8980 C   0  0  0  0  0  0  0  0  0  0  0  0
  1  2  1  0
  2  3  2  0
  2  4  1  0
  4  5  2  0
  3  6  1  0
  4  7  1  0
  5  8  1  0
  6  8  2  0
  5  9  1  0
  7 10  2  0
  8 11  1  0
  9 12  2  0
 10 12  1  0
 13 11  1  0
 13 14  2  0
 13 15  2  0
 13 16  1  0
 16 17  2  0
 16 18  1  0
 17 19  1  0
 18 20  2  0
 19 21  2  0
 20 21  1  0
M  END
