mac-x0341-mac-x0188
     RDKit          3D

 20 22  0  0  0  0  0  0  0  0999 V2000
   -6.7060   14.7070    2.1130 N   0  0  0  0  0  0  0  0  0  0  0  0
   -5.9320   14.7860    0.9960 C   0  0  0  0  0  0  0  0  0  0  0  0
   -4.6550   14.7030    1.1090 N   0  0  0  0  0  0  0  0  0  0  0  0
   -6.5370   14.9580   -0.2120 N   0  0  0  0  0  0  0  0  0  0  0  0
   -5.8190   15.1570   -1.3700 C   0  0  0  0  0  0  0  0  0  0  0  0
   -3.9010   14.7790   -0.0240 C   0  0  0  0  0  0  0  0  0  0  0  0
   -6.3730   15.4160   -2.4250 O   0  0  0  0  0  0  0  0  0  0  0  0
   -4.3470   15.0060   -1.2640 C   0  0  0  0  0  0  0  0  0  0  0  0
   -2.4980   14.5670    0.1930 C   0  0  0  0  0  0  0  0  0  0  0  0
   -1.6440   14.3530   -0.8270 C   0  0  0  0  0  0  0  0  0  0  0  0
   -3.4240   15.0820   -2.4850 C   0  0  0  0  0  0  0  0  0  0  0  0
   -2.0310   14.3340   -2.3280 C   0  0  2  0  0  0  0  0  0  0  0  0
   -2.1670   12.9740   -2.9260 N   0  0  0  0  0  0  0  0  0  0  0  0
   -0.7250   14.7450   -3.0790 C   0  0  1  0  0  0  0  0  0  0  0  0
    0.5460   14.4380   -2.3130 C   0  0  0  0  0  0  0  0  0  0  0  0
   -0.6890   14.0160   -4.4180 C   0  0  2  0  0  0  0  0  0  0  0  0
   -1.7080   13.0300   -4.3310 O   0  0  0  0  0  0  0  0  0  0  0  0
    0.6400   13.3960   -4.8720 C   0  0  0  0  0  0  0  0  0  0  0  0
    1.5540   15.1010   -2.3980 O   0  0  0  0  0  0  0  0  0  0  0  0
    0.5600   13.3630   -1.5080 O   0  0  0  0  0  0  0  0  0  0  0  0
  1  2  1  0
  2  3  2  0
  2  4  1  0
  4  5  1  0
  3  6  1  0
  5  7  2  0
  5  8  1  0
  6  8  2  0
  6  9  1  0
  9 10  2  0
  8 11  1  0
 12 10  1  1
 11 12  1  0
 12 13  1  0
 12 14  1  0
 14 15  1  1
 14 16  1  0
 13 17  1  0
 16 17  1  0
 16 18  1  1
 15 19  2  0
 15 20  1  0
M  END
