mac-x0178-diamond-x0849_0_A
     RDKit          3D

 26 28  0  0  0  0  0  0  0  0999 V2000
   -0.7560   18.6430   -5.1010 N   0  0  0  0  0  0  0  0  0  0  0  0
   -1.5210   17.2630   -5.5900 S   0  0  2  0  0  0  0  0  0  0  0  0
   -1.5880   17.4940   -7.0010 O   0  0  0  0  0  0  0  0  0  0  0  0
   -2.6970   17.1380   -4.7090 N   0  0  0  0  0  0  0  0  0  0  0  0
   -0.7430   15.8620   -4.8660 C   0  0  0  0  0  0  0  0  0  0  0  0
   -3.3430   15.7980   -4.7990 C   0  0  0  0  0  0  0  0  0  0  0  0
    0.3650   16.0520   -4.0420 C   0  0  0  0  0  0  0  0  0  0  0  0
   -1.2790   14.5850   -5.0900 C   0  0  0  0  0  0  0  0  0  0  0  0
   -3.7070   15.2260   -3.4180 C   0  0  0  0  0  0  0  0  0  0  0  0
    0.9290   14.9440   -3.4140 C   0  0  0  0  0  0  0  0  0  0  0  0
   -0.7140   13.4840   -4.4600 C   0  0  0  0  0  0  0  0  0  0  0  0
   -3.1140   15.9880   -2.3650 O   0  0  0  0  0  0  0  0  0  0  0  0
    0.3820   13.6700   -3.6160 C   0  0  0  0  0  0  0  0  0  0  0  0
    0.9980   12.5360   -2.9000 C   0  0  0  0  0  0  0  0  0  0  0  0
   -3.3400   15.6710   -1.0450 C   0  0  0  0  0  0  0  0  0  0  0  0
    1.9400   12.6780   -2.1550 O   0  0  0  0  0  0  0  0  0  0  0  0
    0.4020   11.3520   -3.1370 O   0  0  0  0  0  0  0  0  0  0  0  0
   -2.2090   15.2870   -0.2860 C   0  0  0  0  0  0  0  0  0  0  0  0
   -4.5780   15.7090   -0.4230 C   0  0  0  0  0  0  0  0  0  0  0  0
   -2.3990   14.9620    1.0660 C   0  0  0  0  0  0  0  0  0  0  0  0
   -4.6340   15.3690    0.9060 C   0  0  0  0  0  0  0  0  0  0  0  0
   -0.9000   15.2110   -0.8010 C   0  0  0  0  0  0  0  0  0  0  0  0
   -3.5800   15.0070    1.6320 N   0  0  0  0  0  0  0  0  0  0  0  0
   -1.4060   14.5940    1.8470 N   0  0  0  0  0  0  0  0  0  0  0  0
    0.1400   14.8200    0.0330 C   0  0  0  0  0  0  0  0  0  0  0  0
   -0.1770   14.5230    1.3410 C   0  0  0  0  0  0  0  0  0  0  0  0
  2  1  1  1
  2  3  2  0
  2  4  2  0
  2  5  1  0
  4  6  1  0
  5  7  2  0
  5  8  1  0
  6  9  1  0
  7 10  1  0
  8 11  2  0
  9 12  1  0
 10 13  2  0
 11 13  1  0
 13 14  1  0
 12 15  1  0
 14 16  2  0
 14 17  1  0
 15 18  1  0
 15 19  2  0
 18 20  2  0
 19 21  1  0
 18 22  1  0
 20 23  1  0
 21 23  2  0
 20 24  1  0
 22 25  2  0
 24 26  2  0
 25 26  1  0
M  END
