mac-x0282-mac-x1493
     RDKit          3D

 17 19  0  0  0  0  0  0  0  0999 V2000
   -1.5810   14.1130   -2.2590 O   0  0  0  0  0  0  0  0  0  0  0  0
   -2.8190   14.6500   -2.3640 C   0  0  0  0  0  0  0  0  0  0  0  0
   -3.4080   14.5630   -3.4220 O   0  0  0  0  0  0  0  0  0  0  0  0
   -3.1980   15.3140   -1.0650 C   0  0  1  0  0  0  0  0  0  0  0  0
   -4.2740   14.7650   -0.0310 C   0  0  1  0  0  0  0  0  0  0  0  0
   -1.9950   15.1280   -0.2440 C   0  0  0  0  0  0  0  0  0  0  0  0
   -2.2830   14.3320    0.8540 C   0  0  0  0  0  0  0  0  0  0  0  0
   -3.6060   13.8610    0.8810 N   0  0  0  0  0  0  0  0  0  0  0  0
   -0.7320   15.6150   -0.4490 C   0  0  0  0  0  0  0  0  0  0  0  0
   -4.6540   15.7310    1.0640 C   0  0  0  0  0  0  0  0  0  0  0  0
   -5.5680   14.1890   -0.6370 C   0  0  0  0  0  0  0  0  0  0  0  0
    0.2070   15.2680    0.4960 C   0  0  0  0  0  0  0  0  0  0  0  0
   -1.4000   14.0300    1.7760 N   0  0  0  0  0  0  0  0  0  0  0  0
   -6.7070   14.0470    0.0770 C   0  0  0  0  0  0  0  0  0  0  0  0
   -5.7800   15.2070    1.9450 C   0  0  0  0  0  0  0  0  0  0  0  0
   -0.1770   14.4930    1.5710 C   0  0  0  0  0  0  0  0  0  0  0  0
   -6.7430   14.4230    1.4590 C   0  0  0  0  0  0  0  0  0  0  0  0
  1  2  1  0
  2  3  2  0
  4  2  1  6
  4  5  1  0
  4  6  1  0
  6  7  2  0
  5  8  1  0
  7  8  1  0
  6  9  1  0
  5 10  1  1
  5 11  1  0
  9 12  2  0
  7 13  1  0
 11 14  2  0
 10 15  1  0
 12 16  1  0
 13 16  2  0
 14 17  1  0
 15 17  2  0
M  END
