mac-x0131-mac-x0223
     RDKit          3D

 31 34  0  0  0  0  0  0  0  0999 V2000
   -4.6520   14.8920   -3.7550 C   0  0  0  0  0  0  0  0  0  0  0  0
   -3.9180   14.9450   -2.4740 C   0  0  0  0  0  0  0  0  0  0  0  0
   -4.3100   15.1560   -1.1870 C   0  0  0  0  0  0  0  0  0  0  0  0
   -2.6030   14.7570   -2.4730 N   0  0  0  0  0  0  0  0  0  0  0  0
   -5.6960   15.4220   -0.7490 C   0  0  0  0  0  0  0  0  0  0  0  0
   -1.9750   14.5410   -3.7210 C   0  0  0  0  0  0  0  0  0  0  0  0
   -3.1460   15.0660   -0.3620 C   0  0  0  0  0  0  0  0  0  0  0  0
   -2.0680   14.8080   -1.1910 C   0  0  0  0  0  0  0  0  0  0  0  0
   -2.8820   15.1780    1.0060 C   0  0  0  0  0  0  0  0  0  0  0  0
   -0.7810   14.6520   -0.7850 N   0  0  0  0  0  0  0  0  0  0  0  0
   -1.3650   13.2640   -3.6930 C   0  0  0  0  0  0  0  0  0  0  0  0
   -3.8890   15.4540    1.9150 N   0  0  0  0  0  0  0  0  0  0  0  0
   -1.6220   15.0240    1.4690 N   0  0  0  0  0  0  0  0  0  0  0  0
   -0.6540   14.7740    0.5590 C   0  0  0  0  0  0  0  0  0  0  0  0
   -0.2250   13.0460   -3.1520 C   0  0  0  0  0  0  0  0  0  0  0  0
   -1.9180   12.1140   -4.2370 O   0  0  0  0  0  0  0  0  0  0  0  0
   -0.9980   11.1310   -3.9870 C   0  0  0  0  0  0  0  0  0  0  0  0
    0.0100   11.7540   -3.3260 C   0  0  0  0  0  0  0  0  0  0  0  0
    1.1510   11.5990   -2.7770 N   0  0  0  0  0  0  0  0  0  0  0  0
    1.8370   12.4930   -3.4220 C   0  0  0  0  0  0  0  0  0  0  0  0
    1.3050   13.2470   -4.6930 C   0  0  0  0  0  0  0  0  0  0  0  0
    3.0840   12.7930   -3.0710 O   0  0  0  0  0  0  0  0  0  0  0  0
    0.3570   14.4800   -4.7440 C   0  0  0  0  0  0  0  0  0  0  0  0
   -1.0320   14.3580   -5.0270 C   0  0  0  0  0  0  0  0  0  0  0  0
    0.8490   15.7830   -4.5390 C   0  0  0  0  0  0  0  0  0  0  0  0
   -0.0040   16.8960   -4.6100 C   0  0  0  0  0  0  0  0  0  0  0  0
   -1.8900   15.4890   -5.0860 C   0  0  0  0  0  0  0  0  0  0  0  0
    0.3810   18.1780   -4.4520 O   0  0  0  0  0  0  0  0  0  0  0  0
   -1.3590   16.7530   -4.8710 C   0  0  0  0  0  0  0  0  0  0  0  0
    1.2280   18.5500   -5.5210 C   0  0  0  0  0  0  0  0  0  0  0  0
   -2.1700   17.8770   -4.9180 O   0  0  0  0  0  0  0  0  0  0  0  0
  1  2  1  0
  2  3  2  0
  2  4  1  0
  3  5  1  0
  4  6  1  0
  3  7  1  0
  4  8  1  0
  7  8  2  0
  7  9  1  0
  8 10  1  0
  6 11  1  0
  9 12  1  0
  9 13  2  0
 10 14  2  0
 13 14  1  0
 11 15  2  0
 11 16  1  0
 16 17  1  0
 15 18  1  0
 17 18  2  0
 18 19  1  0
 19 20  2  3
 20 21  1  0
 20 22  1  0
 21 23  1  0
 23 24  2  0
 23 25  1  0
 25 26  2  0
 24 27  1  0
 26 28  1  0
 26 29  1  0
 27 29  2  0
 28 30  1  0
 29 31  1  0
M  END
