mac-x0305-diamond-x0471_0_A
     RDKit          3D

 21 22  0  0  0  0  0  0  0  0999 V2000
    0.2500   13.2170   -0.3970 O   0  0  0  0  0  0  0  0  0  0  0  0
   -0.4850   13.9930   -1.2550 C   0  0  0  0  0  0  0  0  0  0  0  0
    0.0430   14.4900   -2.2440 O   0  0  0  0  0  0  0  0  0  0  0  0
   -1.9700   14.1280   -0.8590 C   0  0  1  0  0  0  0  0  0  0  0  0
   -2.2040   14.3530    0.6640 C   0  0  1  0  0  0  0  0  0  0  0  0
   -2.6950   15.0590   -1.7790 N   0  0  0  0  0  0  0  0  0  0  0  0
   -1.1560   14.9810    1.4260 O   0  0  0  0  0  0  0  0  0  0  0  0
   -3.4880   15.1300    0.9300 C   0  0  0  0  0  0  0  0  0  0  0  0
   -4.1350   15.2990   -1.4730 C   0  0  0  0  0  0  0  0  0  0  0  0
   -4.6100   14.7900   -0.0910 C   0  0  2  0  0  0  0  0  0  0  0  0
   -5.8940   15.3000    0.4380 N   0  0  0  0  0  0  0  0  0  0  0  0
   -5.0330   13.3180   -0.2280 C   0  0  0  0  0  0  0  0  0  0  0  0
   -6.5120   13.3070   -0.1860 N   0  0  0  0  0  0  0  0  0  0  0  0
   -6.7050   14.1960    0.9260 C   0  0  2  0  0  0  0  0  0  0  0  0
   -8.2110   14.4860    1.2680 C   0  0  0  0  0  0  0  0  0  0  0  0
   -8.5150   14.2900    2.6960 N   0  0  0  0  0  0  0  0  0  0  0  0
   -9.0710   15.1730    3.5810 C   0  0  0  0  0  0  0  0  0  0  0  0
   -9.4930   16.2330    3.1310 O   0  0  0  0  0  0  0  0  0  0  0  0
   -9.1960   14.8440    5.0750 C   0  0  0  0  0  0  0  0  0  0  0  0
   -9.5980   13.3880    5.3120 C   0  0  0  0  0  0  0  0  0  0  0  0
   -7.9170   15.1910    5.8290 C   0  0  0  0  0  0  0  0  0  0  0  0
  1  2  1  0
  2  3  2  0
  4  2  1  1
  4  5  1  0
  4  6  1  0
  5  7  1  6
  5  8  1  0
  6  9  1  0
 10  8  1  1
  9 10  1  0
 10 11  1  0
 10 12  1  0
 12 13  1  0
 11 14  1  0
 13 14  1  0
 14 15  1  6
 15 16  1  0
 16 17  1  0
 17 18  2  0
 17 19  1  0
 19 20  1  0
 19 21  1  0
M  END
