mac-x0123-mac-x0397
     RDKit          3D

 15 17  0  0  0  0  0  0  0  0999 V2000
   -3.4720   14.6170    1.7740 N   0  0  0  0  0  0  0  0  0  0  0  0
   -4.6760   14.9670    1.0300 C   0  0  2  0  0  0  0  0  0  0  0  0
   -6.0940   14.4770    1.6010 C   0  0  1  0  0  0  0  0  0  0  0  0
   -4.5030   14.4730   -0.3310 N   0  0  0  0  0  0  0  0  0  0  0  0
   -6.4880   15.1590    2.8500 N   0  0  0  0  0  0  0  0  0  0  0  0
   -5.5990   14.7890   -1.2040 C   0  0  2  0  0  0  0  0  0  0  0  0
   -7.2250   14.5540    0.4940 C   0  0  1  0  0  0  0  0  0  0  0  0
   -6.2510   13.0690    2.0360 C   0  0  0  0  0  0  0  0  0  0  0  0
   -3.3170   14.9520   -1.0640 N   0  0  0  0  0  0  0  0  0  0  0  0
   -6.8260   14.1240   -0.8550 N   0  0  0  0  0  0  0  0  0  0  0  0
   -8.3150   13.6640    1.0900 C   0  0  0  0  0  0  0  0  0  0  0  0
   -7.4910   12.6230    1.7710 C   0  0  0  0  0  0  0  0  0  0  0  0
   -5.0890   14.2780   -2.4320 N   0  0  0  0  0  0  0  0  0  0  0  0
   -3.7540   14.8670   -2.4760 C   0  0  0  0  0  0  0  0  0  0  0  0
   -6.1870   14.5660   -3.7510 Cl  0  0  0  0  0  0  0  0  0  0  0  0
  2  1  1  1
  2  3  1  0
  2  4  1  0
  3  5  1  1
  4  6  1  0
  3  7  1  0
  3  8  1  0
  4  9  1  0
  6 10  1  1
  7 10  1  0
  7 11  1  1
  8 12  2  0
 11 12  1  0
  6 13  1  0
  9 14  1  0
 13 14  1  0
 13 15  1  0
M  END
