mac-x0271-diamond-x0438_0_A
     RDKit          3D

 16 17  0  0  0  0  0  0  0  0999 V2000
   -3.7750   15.3590   -3.2480 O   0  0  0  0  0  0  0  0  0  0  0  0
   -4.3790   15.2010   -2.0350 C   0  0  0  0  0  0  0  0  0  0  0  0
   -3.5490   15.2210   -0.9200 C   0  0  0  0  0  0  0  0  0  0  0  0
   -5.7570   15.0260   -1.9110 C   0  0  0  0  0  0  0  0  0  0  0  0
   -6.2810   14.8650   -0.6310 C   0  0  0  0  0  0  0  0  0  0  0  0
   -4.0860   15.0680    0.3490 C   0  0  0  0  0  0  0  0  0  0  0  0
   -5.4540   14.8860    0.4930 C   0  0  0  0  0  0  0  0  0  0  0  0
   -7.6740   14.6730   -0.4700 O   0  0  0  0  0  0  0  0  0  0  0  0
   -6.0450   14.7080    1.7880 C   0  0  0  0  0  0  0  0  0  0  0  0
   -8.2410   14.9100    0.7710 C   0  0  0  0  0  0  0  0  0  0  0  0
   -9.4400   15.3150    0.9550 N   0  0  0  0  0  0  0  0  0  0  0  0
   -7.3600   14.7060    1.9220 C   0  0  0  0  0  0  0  0  0  0  0  0
   -9.9360   15.6180    2.4730 S   0  0  0  0  0  0  0  0  0  0  0  0
   -8.5000   15.5260    3.5260 C   0  0  0  0  0  0  0  0  0  0  0  0
  -10.8500   14.5890    2.9210 O   0  0  0  0  0  0  0  0  0  0  0  0
  -10.3140   17.0030    2.4920 O   0  0  0  0  0  0  0  0  0  0  0  0
  1  2  1  0
  2  3  2  0
  2  4  1  0
  4  5  2  0
  3  6  1  0
  5  7  1  0
  6  7  2  0
  5  8  1  0
  7  9  1  0
  8 10  1  0
 10 11  2  3
  9 12  2  0
 10 12  1  0
 13 11  1  0
 13 14  1  0
 13 15  2  0
 13 16  2  0
M  END
