mac-x0212-diamond-x0465_0_A
     RDKit          3D

 28 29  0  0  0  0  0  0  0  0999 V2000
   -6.4960   12.7120    1.3690 C   0  0  0  0  0  0  0  0  0  0  0  0
   -6.9260   14.4160    1.0700 S   0  0  0  0  0  0  0  0  0  0  0  0
   -7.8580   14.8690    2.0790 O   0  0  0  0  0  0  0  0  0  0  0  0
   -7.2350   14.5660   -0.3390 O   0  0  0  0  0  0  0  0  0  0  0  0
   -5.4080   15.1400    1.3010 N   0  0  0  0  0  0  0  0  0  0  0  0
   -4.4810   15.0220    0.2180 C   0  0  0  0  0  0  0  0  0  0  0  0
   -3.2390   14.4390    0.4630 C   0  0  0  0  0  0  0  0  0  0  0  0
   -4.8110   15.4770   -1.0670 C   0  0  0  0  0  0  0  0  0  0  0  0
   -2.3150   14.3000   -0.5730 C   0  0  0  0  0  0  0  0  0  0  0  0
   -3.8860   15.3380   -2.1090 C   0  0  0  0  0  0  0  0  0  0  0  0
   -2.6390   14.7490   -1.8590 C   0  0  0  0  0  0  0  0  0  0  0  0
   -1.6800   14.6160   -2.9670 C   0  0  0  0  0  0  0  0  0  0  0  0
   -0.4310   14.3120   -3.0470 N   0  0  0  0  0  0  0  0  0  0  0  0
   -2.3020   14.8840   -4.1300 O   0  0  0  0  0  0  0  0  0  0  0  0
    0.3950   13.9840   -1.8850 C   0  0  0  0  0  0  0  0  0  0  0  0
    0.4200   12.5390   -1.7250 N   0  0  0  0  0  0  0  0  0  0  0  0
    0.5310   11.7850   -2.7760 C   0  0  0  0  0  0  0  0  0  0  0  0
    0.6610   12.3630   -4.2210 C   0  0  1  0  0  0  0  0  0  0  0  0
    0.5260   10.4270   -2.6650 O   0  0  0  0  0  0  0  0  0  0  0  0
    2.0340   13.0220   -4.4060 C   0  0  0  0  0  0  0  0  0  0  0  0
    0.5650   11.3650   -5.2530 O   0  0  0  0  0  0  0  0  0  0  0  0
   -0.6420   10.7610   -5.4890 C   0  0  0  0  0  0  0  0  0  0  0  0
   -0.6870    9.8120   -6.5290 C   0  0  0  0  0  0  0  0  0  0  0  0
   -1.8150   11.0180   -4.7760 C   0  0  0  0  0  0  0  0  0  0  0  0
    0.4070    9.5250   -7.2570 F   0  0  0  0  0  0  0  0  0  0  0  0
   -1.8590    9.1370   -6.8440 C   0  0  0  0  0  0  0  0  0  0  0  0
   -2.9940   10.3400   -5.0950 C   0  0  0  0  0  0  0  0  0  0  0  0
   -3.0200    9.4000   -6.1230 C   0  0  0  0  0  0  0  0  0  0  0  0
  1  2  1  0
  2  3  2  0
  2  4  2  0
  2  5  1  0
  5  6  1  0
  6  7  2  0
  6  8  1  0
  7  9  1  0
  8 10  2  0
  9 11  2  0
 10 11  1  0
 11 12  1  0
 12 13  2  3
 12 14  1  0
 13 15  1  0
 15 16  1  0
 16 17  2  3
 17 18  1  0
 17 19  1  0
 18 20  1  1
 18 21  1  0
 21 22  1  0
 22 23  2  0
 22 24  1  0
 23 25  1  0
 23 26  1  0
 24 27  2  0
 26 28  2  0
 27 28  1  0
M  END
