mac-x0131-mac-x0180
     RDKit          3D

 23 25  0  0  0  0  0  0  0  0999 V2000
   -4.1090   14.3980   -3.9300 C   0  0  0  0  0  0  0  0  0  0  0  0
   -3.4220   14.7740   -2.6170 C   0  0  1  0  0  0  0  0  0  0  0  0
   -4.3080   14.8210   -1.2650 C   0  0  1  0  0  0  0  0  0  0  0  0
   -2.0910   14.1530   -2.2800 N   0  0  0  0  0  0  0  0  0  0  0  0
   -5.3790   15.8750   -1.4000 C   0  0  0  0  0  0  0  0  0  0  0  0
   -0.8870   14.3780   -3.0590 C   0  0  1  0  0  0  0  0  0  0  0  0
   -5.1200   13.6930   -0.7410 N   0  0  0  0  0  0  0  0  0  0  0  0
   -3.1760   15.1230   -0.2990 C   0  0  2  0  0  0  0  0  0  0  0  0
   -1.8740   14.6240   -0.9580 C   0  0  1  0  0  0  0  0  0  0  0  0
   -6.4510   13.9280   -0.3490 C   0  0  0  0  0  0  0  0  0  0  0  0
   -3.0790   14.6840    1.1210 C   0  0  2  0  0  0  0  0  0  0  0  0
   -1.0290   13.7980   -0.1580 N   0  0  0  0  0  0  0  0  0  0  0  0
   -0.5190   13.1990   -3.8800 C   0  0  0  0  0  0  0  0  0  0  0  0
   -0.7950   15.5940   -3.7620 O   0  0  0  0  0  0  0  0  0  0  0  0
   -4.0390   15.3850    1.9040 N   0  0  0  0  0  0  0  0  0  0  0  0
   -6.7040   14.0380    1.1380 C   0  0  0  0  0  0  0  0  0  0  0  0
   -7.3820   14.0670   -1.1270 O   0  0  0  0  0  0  0  0  0  0  0  0
   -1.7840   14.9890    1.7010 N   0  0  0  0  0  0  0  0  0  0  0  0
   -0.6120   14.5140    1.0100 C   0  0  0  0  0  0  0  0  0  0  0  0
    0.5490   12.9010   -4.6870 C   0  0  0  0  0  0  0  0  0  0  0  0
   -1.4040   12.1590   -3.8520 O   0  0  0  0  0  0  0  0  0  0  0  0
   -0.8980   11.1970   -4.6470 C   0  0  0  0  0  0  0  0  0  0  0  0
    0.2960   11.6060   -5.1840 C   0  0  0  0  0  0  0  0  0  0  0  0
  2  1  1  6
  2  3  1  0
  2  4  1  0
  3  5  1  6
  4  6  1  0
  3  7  1  0
  3  8  1  0
  4  9  1  0
  8  9  1  0
  7 10  1  0
  8 11  1  1
  9 12  1  1
  6 13  1  0
  6 14  1  6
 11 15  1  1
 10 16  1  0
 10 17  2  0
 11 18  1  0
 12 19  1  0
 18 19  1  0
 13 20  2  0
 13 21  1  0
 21 22  1  0
 20 23  1  0
 22 23  2  0
M  END
