mac-x0588-mac-x0182
     RDKit          3D

 29 33  0  0  0  0  0  0  0  0999 V2000
   -4.4200   14.8460    1.2650 N   0  0  0  0  0  0  0  0  0  0  0  0
   -3.5330   15.3010    0.2260 C   0  0  1  0  0  0  0  0  0  0  0  0
   -2.0180   15.1610    0.5230 C   0  0  2  0  0  0  0  0  0  0  0  0
   -3.9030   14.4790   -0.8840 N   0  0  0  0  0  0  0  0  0  0  0  0
   -3.3870   15.1170   -2.0590 C   0  0  0  0  0  0  0  0  0  0  0  0
   -1.1680   14.9410   -0.7920 C   0  0  2  0  0  0  0  0  0  0  0  0
   -1.6120   14.1000    1.4350 N   0  0  0  0  0  0  0  0  0  0  0  0
   -1.9410   14.9930   -2.0840 N   0  0  0  0  0  0  0  0  0  0  0  0
   -0.4870   13.7010   -0.4790 N   0  0  0  0  0  0  0  0  0  0  0  0
   -0.2790   13.9220    0.9440 C   0  0  0  0  0  0  0  0  0  0  0  0
   -1.3910   14.5670   -3.4150 C   0  0  2  0  0  0  0  0  0  0  0  0
   -0.5320   13.2990   -3.4670 C   0  0  0  0  0  0  0  0  0  0  0  0
   -0.7750   15.6740   -4.3680 C   0  0  1  0  0  0  0  0  0  0  0  0
   -1.3530   12.1670   -3.9530 N   0  0  0  0  0  0  0  0  0  0  0  0
   -1.6320   16.8300   -4.5010 O   0  0  0  0  0  0  0  0  0  0  0  0
    0.5880   16.2590   -4.0610 C   0  0  0  0  0  0  0  0  0  0  0  0
    0.6280   17.4670   -4.9700 C   0  0  0  0  0  0  0  0  0  0  0  0
   -0.8300   17.8900   -5.0540 C   0  0  0  0  0  0  0  0  0  0  0  0
   -0.5080   10.9790   -4.2720 S   0  0  2  0  0  0  0  0  0  0  0  0
    0.1400   10.1050   -3.3420 O   0  0  0  0  0  0  0  0  0  0  0  0
    0.6980   11.8010   -5.0940 N   0  0  0  0  0  0  0  0  0  0  0  0
   -1.0650   10.0990   -5.6560 C   0  0  0  0  0  0  0  0  0  0  0  0
    0.7800   11.4160   -6.3940 C   0  0  0  0  0  0  0  0  0  0  0  0
   -0.2690   10.4340   -6.7440 C   0  0  0  0  0  0  0  0  0  0  0  0
   -2.1080    9.2010   -5.7340 C   0  0  0  0  0  0  0  0  0  0  0  0
    1.6200   11.7820   -7.1630 O   0  0  0  0  0  0  0  0  0  0  0  0
   -2.3440    8.6190   -6.9830 C   0  0  0  0  0  0  0  0  0  0  0  0
   -0.4940    9.8610   -7.9840 C   0  0  0  0  0  0  0  0  0  0  0  0
   -1.5460    8.9450   -8.0960 C   0  0  0  0  0  0  0  0  0  0  0  0
  2  1  1  1
  2  3  1  0
  2  4  1  0
  4  5  1  0
  3  6  1  0
  3  7  1  1
  5  8  1  0
  6  8  1  0
  6  9  1  1
  7 10  1  0
  9 10  1  0
  8 11  1  0
 11 12  1  1
 11 13  1  0
 12 14  1  0
 13 15  1  0
 13 16  1  1
 16 17  1  0
 15 18  1  0
 17 18  1  0
 14 19  2  0
 19 20  2  0
 19 21  1  6
 19 22  1  0
 21 23  1  0
 22 24  2  0
 23 24  1  0
 22 25  1  0
 23 26  2  0
 25 27  2  0
 24 28  1  0
 27 29  1  0
 28 29  2  0
M  END
