mac-x0263-diamond-x0962_1_A
     RDKit          3D

 16 17  0  0  0  0  0  0  0  0999 V2000
  -11.3160   14.2160    2.2670 O   0  0  0  0  0  0  0  0  0  0  0  0
  -10.6630   15.3500    2.5850 C   0  0  0  0  0  0  0  0  0  0  0  0
  -11.0990   16.1310    3.4220 O   0  0  0  0  0  0  0  0  0  0  0  0
   -9.3680   15.6020    1.8400 C   0  0  0  0  0  0  0  0  0  0  0  0
   -8.8250   14.4390    0.9960 C   0  0  0  0  0  0  0  0  0  0  0  0
   -7.3570   14.6450    0.7250 C   0  0  0  0  0  0  0  0  0  0  0  0
   -6.6970   14.7520   -0.4990 N   0  0  0  0  0  0  0  0  0  0  0  0
   -6.4380   14.7700    1.6840 N   0  0  0  0  0  0  0  0  0  0  0  0
   -6.9400   14.7270   -1.9040 C   0  0  0  0  0  0  0  0  0  0  0  0
   -5.4290   14.9390   -0.3210 C   0  0  0  0  0  0  0  0  0  0  0  0
   -5.2310   14.9550    1.0180 C   0  0  0  0  0  0  0  0  0  0  0  0
   -6.8930   14.7230   -3.0460 N   0  0  0  0  0  0  0  0  0  0  0  0
   -4.4780   15.0900   -1.3090 C   0  0  0  0  0  0  0  0  0  0  0  0
   -3.9170   15.1450    1.4510 C   0  0  0  0  0  0  0  0  0  0  0  0
   -3.2000   15.2660   -0.8770 C   0  0  0  0  0  0  0  0  0  0  0  0
   -2.9130   15.2950    0.4870 C   0  0  0  0  0  0  0  0  0  0  0  0
  1  2  1  0
  2  3  2  0
  2  4  1  0
  4  5  1  0
  5  6  1  0
  6  7  1  0
  6  8  2  0
  7  9  1  0
  7 10  1  0
  8 11  1  0
 10 11  2  0
  9 12  3  0
 10 13  1  0
 11 14  1  0
 13 15  2  0
 14 16  2  0
 15 16  1  0
M  END
