mac-x0161-mac-x0385
     RDKit          3D

 20 22  0  0  0  0  0  0  0  0999 V2000
   -4.6320   15.4120    1.3010 N   0  0  0  0  0  0  0  0  0  0  0  0
   -3.6770   14.9570    0.2870 C   0  0  2  0  0  0  0  0  0  0  0  0
   -2.2240   15.2460    0.6310 C   0  0  2  0  0  0  0  0  0  0  0  0
   -4.0750   15.6120   -0.9290 N   0  0  0  0  0  0  0  0  0  0  0  0
   -5.4810   15.4400   -1.2610 C   0  0  0  0  0  0  0  0  0  0  0  0
   -3.1720   15.4560   -2.0710 C   0  0  0  0  0  0  0  0  0  0  0  0
   -1.2770   14.9360   -0.5310 C   0  0  2  0  0  0  0  0  0  0  0  0
   -1.6820   14.4520    1.7530 N   0  0  0  0  0  0  0  0  0  0  0  0
   -0.1910   15.9450   -0.5190 C   0  0  0  0  0  0  0  0  0  0  0  0
   -1.9530   14.6850   -1.8210 N   0  0  0  0  0  0  0  0  0  0  0  0
   -0.5890   13.7370   -0.0830 N   0  0  0  0  0  0  0  0  0  0  0  0
   -0.3710   14.0610    1.3040 C   0  0  0  0  0  0  0  0  0  0  0  0
   -1.0400   14.7680   -2.9780 C   0  0  0  0  0  0  0  0  0  0  0  0
   -0.7550   13.4010   -3.4740 C   0  0  0  0  0  0  0  0  0  0  0  0
   -1.1780   12.6590   -4.5480 C   0  0  0  0  0  0  0  0  0  0  0  0
    0.1130   12.6650   -2.7290 O   0  0  0  0  0  0  0  0  0  0  0  0
    0.2690   11.4180   -3.3020 N   0  0  0  0  0  0  0  0  0  0  0  0
   -0.5110   11.4360   -4.3830 C   0  0  0  0  0  0  0  0  0  0  0  0
   -0.6170   10.3660   -5.2000 O   0  0  0  0  0  0  0  0  0  0  0  0
   -1.7860   10.3630   -6.0110 C   0  0  0  0  0  0  0  0  0  0  0  0
  2  1  1  1
  2  3  1  0
  2  4  1  0
  4  5  1  0
  4  6  1  0
  3  7  1  0
  3  8  1  1
  7  9  1  6
  6 10  1  0
  7 10  1  0
  7 11  1  0
  8 12  1  0
 11 12  1  0
 10 13  1  0
 13 14  1  0
 14 15  2  0
 14 16  1  0
 16 17  1  0
 15 18  1  0
 17 18  2  0
 18 19  1  0
 19 20  1  0
M  END
