mac-x0344-mac-x0212
     RDKit          3D

 27 28  0  0  0  0  0  0  0  0999 V2000
    2.4900   13.3000   -4.5860 O   0  0  0  0  0  0  0  0  0  0  0  0
    1.2880   13.0670   -3.9040 C   0  0  0  0  0  0  0  0  0  0  0  0
    1.6540   12.9370   -2.5250 O   0  0  0  0  0  0  0  0  0  0  0  0
    0.4720   11.7880   -4.3100 C   0  0  0  0  0  0  0  0  0  0  0  0
    0.3800   14.3150   -4.0290 C   0  0  0  0  0  0  0  0  0  0  0  0
    0.2270   10.9260   -3.4450 O   0  0  0  0  0  0  0  0  0  0  0  0
    0.0220   11.5560   -5.5770 N   0  0  0  0  0  0  0  0  0  0  0  0
   -0.4510   14.4040   -2.8060 N   0  0  0  0  0  0  0  0  0  0  0  0
   -1.6920   14.6790   -2.9310 C   0  0  0  0  0  0  0  0  0  0  0  0
   -0.8300   10.5950   -6.1450 C   0  0  0  0  0  0  0  0  0  0  0  0
   -2.2130   14.8760   -4.1520 O   0  0  0  0  0  0  0  0  0  0  0  0
   -0.3440    9.8980   -7.2560 C   0  0  0  0  0  0  0  0  0  0  0  0
   -2.1020   10.2930   -5.6880 C   0  0  0  0  0  0  0  0  0  0  0  0
   -2.7020   14.8160   -1.8930 C   0  0  0  0  0  0  0  0  0  0  0  0
   -1.1260    8.9220   -7.8830 C   0  0  0  0  0  0  0  0  0  0  0  0
   -2.8870    9.3190   -6.3040 C   0  0  0  0  0  0  0  0  0  0  0  0
   -2.3360   14.5470   -0.5770 C   0  0  0  0  0  0  0  0  0  0  0  0
   -3.9960   15.2020   -2.2150 C   0  0  0  0  0  0  0  0  0  0  0  0
   -2.3990    8.6320   -7.4040 C   0  0  0  0  0  0  0  0  0  0  0  0
   -3.2840   14.6520    0.4310 C   0  0  0  0  0  0  0  0  0  0  0  0
   -4.9450   15.3100   -1.1920 C   0  0  0  0  0  0  0  0  0  0  0  0
   -4.5910   15.0260    0.1380 C   0  0  0  0  0  0  0  0  0  0  0  0
   -5.4890   15.0840    1.2470 N   0  0  0  0  0  0  0  0  0  0  0  0
   -7.0280   14.4370    1.0940 S   0  0  0  0  0  0  0  0  0  0  0  0
   -6.6450   12.7120    1.3030 C   0  0  0  0  0  0  0  0  0  0  0  0
   -7.8930   14.8850    2.1610 O   0  0  0  0  0  0  0  0  0  0  0  0
   -7.4160   14.6310   -0.2890 O   0  0  0  0  0  0  0  0  0  0  0  0
  2  1  1  0
  2  3  1  0
  2  4  1  0
  2  5  1  0
  4  6  2  0
  4  7  1  0
  5  8  1  0
  8  9  2  3
  7 10  1  0
  9 11  1  0
 10 12  2  0
 10 13  1  0
  9 14  1  0
 12 15  1  0
 13 16  2  0
 14 17  2  0
 14 18  1  0
 15 19  2  0
 16 19  1  0
 17 20  1  0
 18 21  2  0
 20 22  2  0
 21 22  1  0
 22 23  1  0
 24 23  1  0
 24 25  1  0
 24 26  2  0
 24 27  2  0
M  END
