mac-x0411-diamond-x0282_0_A
     RDKit          3D

 28 30  0  0  0  0  0  0  0  0999 V2000
    0.8610    8.8300   -7.5010 Cl  0  0  0  0  0  0  0  0  0  0  0  0
   -0.5190    9.4950   -6.7160 C   0  0  0  0  0  0  0  0  0  0  0  0
   -0.4770   10.7370   -6.0620 C   0  0  0  0  0  0  0  0  0  0  0  0
   -1.6910    8.7440   -6.7620 C   0  0  0  0  0  0  0  0  0  0  0  0
    0.7250   11.4240   -6.0520 O   0  0  0  0  0  0  0  0  0  0  0  0
   -1.6600   11.2120   -5.4580 C   0  0  0  0  0  0  0  0  0  0  0  0
   -2.8480    9.2180   -6.1580 C   0  0  0  0  0  0  0  0  0  0  0  0
   -1.7820   12.7170   -4.6320 Cl  0  0  0  0  0  0  0  0  0  0  0  0
    0.8950   12.4660   -5.0690 C   0  0  0  0  0  0  0  0  0  0  0  0
   -2.8330   10.4490   -5.5090 C   0  0  0  0  0  0  0  0  0  0  0  0
    0.8950   11.9610   -3.6210 C   0  0  0  0  0  0  0  0  0  0  0  0
    1.1780   12.9560   -2.7170 O   0  0  0  0  0  0  0  0  0  0  0  0
    0.6760   10.7900   -3.3090 O   0  0  0  0  0  0  0  0  0  0  0  0
    0.2580   14.0780   -2.6230 C   0  0  0  0  0  0  0  0  0  0  0  0
   -0.3080   14.2730   -1.2210 C   0  0  0  0  0  0  0  0  0  0  0  0
   -1.6340   14.1960   -1.0320 N   0  0  0  0  0  0  0  0  0  0  0  0
    0.5230   14.5170   -0.1770 C   0  0  0  0  0  0  0  0  0  0  0  0
   -0.0620   14.6560    1.0690 C   0  0  0  0  0  0  0  0  0  0  0  0
   -2.1330   14.3470    0.2020 C   0  0  0  0  0  0  0  0  0  0  0  0
   -3.4860   14.2650    0.3440 N   0  0  0  0  0  0  0  0  0  0  0  0
   -1.3760   14.5680    1.2880 N   0  0  0  0  0  0  0  0  0  0  0  0
   -3.9200   14.2470    1.7270 C   0  0  0  0  0  0  0  0  0  0  0  0
   -4.2450   14.9770   -0.7050 C   0  0  0  0  0  0  0  0  0  0  0  0
   -5.2460   14.9410    1.8170 C   0  0  0  0  0  0  0  0  0  0  0  0
   -5.7720   14.8820   -0.5780 C   0  0  0  0  0  0  0  0  0  0  0  0
   -6.1580   14.3030    0.7810 C   0  0  0  0  0  0  0  0  0  0  0  0
   -7.6360   14.3990    1.1580 C   0  0  0  0  0  0  0  0  0  0  0  0
   -8.4230   14.7270    0.0230 O   0  0  0  0  0  0  0  0  0  0  0  0
  1  2  1  0
  2  3  2  0
  2  4  1  0
  3  5  1  0
  3  6  1  0
  4  7  2  0
  6  8  1  0
  5  9  1  0
  6 10  2  0
  7 10  1  0
  9 11  1  0
 11 12  1  0
 11 13  2  0
 12 14  1  0
 14 15  1  0
 15 16  2  0
 15 17  1  0
 17 18  2  0
 16 19  1  0
 19 20  1  0
 18 21  1  0
 19 21  2  0
 20 22  1  0
 20 23  1  0
 22 24  1  0
 23 25  1  0
 24 26  1  0
 25 26  1  0
 26 27  1  0
 27 28  1  0
M  END
