mac-x0411-diamond-x0962_1_A
     RDKit          3D

 22 23  0  0  0  0  0  0  0  0999 V2000
    0.3390   10.0580   -8.3920 Cl  0  0  0  0  0  0  0  0  0  0  0  0
   -0.8440   10.3140   -7.1550 C   0  0  0  0  0  0  0  0  0  0  0  0
   -0.7610   11.3900   -6.2380 C   0  0  0  0  0  0  0  0  0  0  0  0
   -1.9040    9.4020   -7.0770 C   0  0  0  0  0  0  0  0  0  0  0  0
    0.2700   12.3130   -6.2950 O   0  0  0  0  0  0  0  0  0  0  0  0
   -1.7460   11.5500   -5.2450 C   0  0  0  0  0  0  0  0  0  0  0  0
   -2.8780    9.5520   -6.0970 C   0  0  0  0  0  0  0  0  0  0  0  0
   -1.6920   12.6970   -4.2420 C   0  0  0  0  0  0  0  0  0  0  0  0
    1.3910   12.2110   -5.3740 C   0  0  0  0  0  0  0  0  0  0  0  0
   -2.8000   10.6160   -5.1910 C   0  0  0  0  0  0  0  0  0  0  0  0
    0.9770   11.9250   -3.9260 C   0  0  0  0  0  0  0  0  0  0  0  0
   -2.9080   13.6560   -4.1480 C   0  0  0  0  0  0  0  0  0  0  0  0
    1.4160   12.8550   -3.0430 O   0  0  0  0  0  0  0  0  0  0  0  0
    0.3310   10.9650   -3.5560 O   0  0  0  0  0  0  0  0  0  0  0  0
   -2.7040   14.8910   -3.2410 C   0  0  0  0  0  0  0  0  0  0  0  0
   -3.6510   14.9500   -2.1100 C   0  0  0  0  0  0  0  0  0  0  0  0
   -4.4570   14.9360   -1.2190 C   0  0  0  0  0  0  0  0  0  0  0  0
   -5.4510   14.8080   -0.2190 C   0  0  0  0  0  0  0  0  0  0  0  0
   -5.2440   14.8330    1.1270 N   0  0  0  0  0  0  0  0  0  0  0  0
   -6.8070   14.6290   -0.3680 C   0  0  0  0  0  0  0  0  0  0  0  0
   -6.4600   14.6650    1.7360 C   0  0  0  0  0  0  0  0  0  0  0  0
   -7.4290   14.5420    0.8530 N   0  0  0  0  0  0  0  0  0  0  0  0
  1  2  1  0
  2  3  2  0
  2  4  1  0
  3  5  1  0
  3  6  1  0
  4  7  2  0
  6  8  1  0
  5  9  1  0
  6 10  2  0
  7 10  1  0
  9 11  1  0
  8 12  1  0
 11 13  1  0
 11 14  2  0
 12 15  1  0
 15 16  1  0
 16 17  3  0
 17 18  1  0
 18 19  1  0
 18 20  2  0
 19 21  1  0
 20 22  1  0
 21 22  2  0
M  END
