mac-x0358-diamond-x0855_0_A
     RDKit          3D

 17 18  0  0  0  0  0  0  0  0999 V2000
    1.4720   13.3450   -2.4600 O   0  0  0  0  0  0  0  0  0  0  0  0
    0.7110   12.4090   -3.0630 C   0  0  0  0  0  0  0  0  0  0  0  0
    0.3090   11.4550   -2.4010 O   0  0  0  0  0  0  0  0  0  0  0  0
    0.3300   12.5340   -4.5390 C   0  0  2  0  0  0  0  0  0  0  0  0
   -0.7270   13.5690   -4.8710 C   0  0  0  0  0  0  0  0  0  0  0  0
   -0.3720   11.3590   -5.0330 N   0  0  0  0  0  0  0  0  0  0  0  0
   -1.9350   13.0970   -5.4140 C   0  0  0  0  0  0  0  0  0  0  0  0
   -0.5990   14.9510   -4.6780 C   0  0  0  0  0  0  0  0  0  0  0  0
   -0.2250   10.7080   -6.2300 C   0  0  0  0  0  0  0  0  0  0  0  0
   -1.3290   10.8130   -4.2400 N   0  0  0  0  0  0  0  0  0  0  0  0
   -2.0960   11.7700   -5.6210 O   0  0  0  0  0  0  0  0  0  0  0  0
   -2.9800   13.9290   -5.7540 C   0  0  0  0  0  0  0  0  0  0  0  0
   -1.6590   15.8060   -5.0210 C   0  0  0  0  0  0  0  0  0  0  0  0
   -1.1470    9.6960   -6.1880 C   0  0  0  0  0  0  0  0  0  0  0  0
   -1.7970    9.7960   -4.9590 C   0  0  0  0  0  0  0  0  0  0  0  0
   -1.5260    8.4030   -7.4710 Br  0  0  0  0  0  0  0  0  0  0  0  0
   -2.8450   15.2910   -5.5580 C   0  0  0  0  0  0  0  0  0  0  0  0
  1  2  1  0
  2  3  2  0
  4  2  1  1
  4  5  1  0
  4  6  1  0
  5  7  2  0
  5  8  1  0
  6  9  1  0
  6 10  1  0
  7 11  1  0
  7 12  1  0
  8 13  2  0
  9 14  2  0
 10 15  2  0
 14 15  1  0
 14 16  1  0
 12 17  2  0
 13 17  1  0
M  END
