mac-x0142-diamond-x1012_0_A
     RDKit          3D

 23 26  0  0  0  0  0  0  0  0999 V2000
    0.1540   17.4850   -4.7940 N   0  0  0  0  0  0  0  0  0  0  0  0
   -0.6290   16.4220   -4.4270 C   0  0  0  0  0  0  0  0  0  0  0  0
   -1.7990   16.4180   -4.8640 O   0  0  0  0  0  0  0  0  0  0  0  0
   -0.0390   15.3190   -3.4300 C   0  0  2  0  0  0  0  0  0  0  0  0
    0.7950   14.0730   -3.8640 C   0  0  0  0  0  0  0  0  0  0  0  0
   -1.1400   14.6970   -2.6790 N   0  0  0  0  0  0  0  0  0  0  0  0
    2.1660   14.2320   -4.4630 C   0  0  0  0  0  0  0  0  0  0  0  0
    2.0610   13.8170   -3.0440 C   0  0  0  0  0  0  0  0  0  0  0  0
   -0.0040   12.8040   -4.0610 C   0  0  1  0  0  0  0  0  0  0  0  0
   -2.1470   14.0160   -3.4990 C   0  0  0  0  0  0  0  0  0  0  0  0
   -1.2680   14.7280   -1.2920 C   0  0  0  0  0  0  0  0  0  0  0  0
    0.0870   11.9610   -2.7850 C   0  0  0  0  0  0  0  0  0  0  0  0
   -1.4550   13.0950   -4.4930 C   0  0  0  0  0  0  0  0  0  0  0  0
   -0.2240   14.5650   -0.3990 N   0  0  0  0  0  0  0  0  0  0  0  0
   -2.4600   14.9470   -0.7370 C   0  0  0  0  0  0  0  0  0  0  0  0
   -0.1270   10.6520   -3.0030 O   0  0  0  0  0  0  0  0  0  0  0  0
    0.3490   12.3560   -1.6430 O   0  0  0  0  0  0  0  0  0  0  0  0
   -0.4350   14.5570    0.9600 C   0  0  0  0  0  0  0  0  0  0  0  0
   -2.6040   14.9870    0.7300 C   0  0  0  0  0  0  0  0  0  0  0  0
   -3.7750   15.2000   -1.2220 C   0  0  0  0  0  0  0  0  0  0  0  0
   -1.5570   14.7390    1.5680 N   0  0  0  0  0  0  0  0  0  0  0  0
   -3.8220   15.2810    1.0810 N   0  0  0  0  0  0  0  0  0  0  0  0
   -4.5070   15.4000   -0.1190 C   0  0  0  0  0  0  0  0  0  0  0  0
  1  2  1  0
  2  3  2  0
  4  2  1  6
  4  5  1  0
  4  6  1  0
  5  7  1  0
  5  8  1  0
  7  8  1  0
  5  9  1  0
  6 10  1  0
  6 11  1  0
  9 12  1  1
  9 13  1  0
 10 13  1  0
 11 14  1  0
 11 15  2  0
 12 16  1  0
 12 17  2  0
 14 18  1  0
 15 19  1  0
 15 20  1  0
 18 21  2  0
 19 21  1  0
 19 22  2  0
 20 23  2  0
 22 23  1  0
M  END
