mac-x0282-mac-x0412
     RDKit          3D

 15 17  0  0  0  0  0  0  0  0999 V2000
   -8.0740   14.6760    0.1580 O   0  0  0  0  0  0  0  0  0  0  0  0
   -6.9020   14.5530    0.5050 C   0  0  0  0  0  0  0  0  0  0  0  0
   -6.5160   14.4740    1.8140 N   0  0  0  0  0  0  0  0  0  0  0  0
   -5.7640   14.5010   -0.4660 C   0  0  0  0  0  0  0  0  0  0  0  0
   -4.4350   14.9580    0.1450 C   0  0  2  0  0  0  0  0  0  0  0  0
   -5.5590   15.3250    2.2730 C   0  0  0  0  0  0  0  0  0  0  0  0
   -3.4360   15.3790   -0.9980 C   0  0  0  0  0  0  0  0  0  0  0  0
   -3.7300   13.8880    0.7910 N   0  0  0  0  0  0  0  0  0  0  0  0
   -4.5260   15.6440    1.4770 C   0  0  0  0  0  0  0  0  0  0  0  0
   -2.1550   15.1710   -0.3030 C   0  0  0  0  0  0  0  0  0  0  0  0
   -2.3920   14.3360    0.7650 C   0  0  0  0  0  0  0  0  0  0  0  0
   -0.8900   15.6500   -0.5480 C   0  0  0  0  0  0  0  0  0  0  0  0
   -1.4770   13.9820    1.6430 N   0  0  0  0  0  0  0  0  0  0  0  0
    0.0960   15.2520    0.3430 C   0  0  0  0  0  0  0  0  0  0  0  0
   -0.2530   14.4400    1.4060 C   0  0  0  0  0  0  0  0  0  0  0  0
  1  2  2  0
  2  3  1  0
  2  4  1  0
  5  4  1  6
  3  6  1  0
  5  7  1  0
  5  8  1  0
  5  9  1  0
  6  9  2  0
  7 10  1  0
  8 11  1  0
 10 11  2  0
 10 12  1  0
 11 13  1  0
 12 14  2  0
 13 15  2  0
 14 15  1  0
M  END
