mac-x0496-diamond-x0685_1_A
     RDKit          3D

 33 35  0  0  0  0  0  0  0  0999 V2000
   -9.6520   17.6860    4.6760 C   0  0  0  0  0  0  0  0  0  0  0  0
   -9.6350   16.7330    3.5450 C   0  0  0  0  0  0  0  0  0  0  0  0
  -10.3390   16.8850    2.4110 N   0  0  0  0  0  0  0  0  0  0  0  0
   -8.8780   15.6060    3.5790 N   0  0  0  0  0  0  0  0  0  0  0  0
  -10.0200   15.7700    1.6540 O   0  0  0  0  0  0  0  0  0  0  0  0
   -9.1410   15.0620    2.4130 C   0  0  0  0  0  0  0  0  0  0  0  0
   -8.6090   13.8150    1.8410 C   0  0  0  0  0  0  0  0  0  0  0  0
   -7.1990   14.0260    1.5820 N   0  0  0  0  0  0  0  0  0  0  0  0
   -6.7580   14.5590    0.3880 C   0  0  0  0  0  0  0  0  0  0  0  0
   -7.5030   14.8750   -0.5320 O   0  0  0  0  0  0  0  0  0  0  0  0
   -5.2910   14.7260    0.2710 C   0  0  0  0  0  0  0  0  0  0  0  0
   -4.5770   14.8700    1.4620 C   0  0  0  0  0  0  0  0  0  0  0  0
   -4.6190   14.7360   -0.9530 C   0  0  0  0  0  0  0  0  0  0  0  0
   -3.2000   15.0110    1.4490 C   0  0  0  0  0  0  0  0  0  0  0  0
   -3.2280   14.8800   -0.9600 C   0  0  0  0  0  0  0  0  0  0  0  0
   -2.4990   14.8880   -2.2300 C   0  0  0  0  0  0  0  0  0  0  0  0
   -2.5210   15.0150    0.2450 C   0  0  0  0  0  0  0  0  0  0  0  0
   -1.2780   14.6160   -2.5020 N   0  0  0  0  0  0  0  0  0  0  0  0
   -3.2960   15.2590   -3.2570 O   0  0  0  0  0  0  0  0  0  0  0  0
   -0.3100   14.2100   -1.4730 C   0  0  0  0  0  0  0  0  0  0  0  0
   -0.0310   12.7990   -1.4190 O   0  0  0  0  0  0  0  0  0  0  0  0
    0.6280   12.0490   -2.6840 S   0  0  0  0  0  0  0  0  0  0  0  0
   -0.0960   12.6500   -4.2190 C   0  0  0  0  0  0  0  0  0  0  0  0
    2.1940   12.3630   -2.8260 O   0  0  0  0  0  0  0  0  0  0  0  0
    0.3620   10.4610   -2.5910 O   0  0  0  0  0  0  0  0  0  0  0  0
   -1.3760   11.9210   -4.6010 C   0  0  0  0  0  0  0  0  0  0  0  0
   -1.0550   10.5060   -4.8560 N   0  0  0  0  0  0  0  0  0  0  0  0
   -1.3740   10.0130   -6.2040 C   0  0  0  0  0  0  0  0  0  0  0  0
   -0.6600    8.6830   -6.5020 C   0  0  0  0  0  0  0  0  0  0  0  0
   -1.0090   11.0910   -7.2580 C   0  0  0  0  0  0  0  0  0  0  0  0
    0.1400    8.7280   -7.8020 C   0  0  0  0  0  0  0  0  0  0  0  0
   -1.1900   10.6590   -8.7150 C   0  0  0  0  0  0  0  0  0  0  0  0
   -0.6780    9.2500   -8.9820 C   0  0  0  0  0  0  0  0  0  0  0  0
  1  2  1  0
  2  3  2  0
  2  4  1  0
  3  5  1  0
  4  6  2  0
  5  6  1  0
  6  7  1  0
  7  8  1  0
  8  9  1  0
  9 10  2  0
  9 11  1  0
 11 12  2  0
 11 13  1  0
 12 14  1  0
 13 15  2  0
 15 16  1  0
 14 17  2  0
 15 17  1  0
 16 18  2  3
 16 19  1  0
 18 20  1  0
 20 21  1  0
 22 21  1  0
 22 23  1  0
 22 24  1  0
 22 25  1  0
 23 26  1  0
 26 27  1  0
 27 28  1  0
 28 29  1  0
 28 30  1  0
 29 31  1  0
 30 32  1  0
 31 33  1  0
 32 33  1  0
M  END
