mac-x0472-mac-x0385
     RDKit          3D

 16 17  0  0  0  0  0  0  0  0999 V2000
   -4.4460   15.4400   -2.2710 O   0  0  0  0  0  0  0  0  0  0  0  0
   -3.4860   14.4240   -2.6340 S   0  0  0  0  0  0  0  0  0  0  0  0
   -2.8960   14.4130   -3.9560 O   0  0  0  0  0  0  0  0  0  0  0  0
   -2.2230   14.4680   -1.5780 N   0  0  0  0  0  0  0  0  0  0  0  0
   -4.1820   12.8170   -2.3390 C   0  0  0  0  0  0  0  0  0  0  0  0
   -2.2160   15.2940   -0.4070 C   0  0  2  0  0  0  0  0  0  0  0  0
   -3.4810   11.6700   -2.7320 C   0  0  0  0  0  0  0  0  0  0  0  0
   -5.4290   12.7110   -1.7170 C   0  0  0  0  0  0  0  0  0  0  0  0
   -1.7640   14.5870    0.8170 N   0  0  0  0  0  0  0  0  0  0  0  0
   -3.9610   15.5860    0.0170 S   0  0  0  0  0  0  0  0  0  0  0  0
   -4.0420   10.4110   -2.5000 C   0  0  0  0  0  0  0  0  0  0  0  0
   -5.9810   11.4480   -1.4900 C   0  0  0  0  0  0  0  0  0  0  0  0
   -0.3180   14.6400    1.0580 C   0  0  0  0  0  0  0  0  0  0  0  0
   -3.9180   15.1270    1.6980 C   0  0  0  0  0  0  0  0  0  0  0  0
   -2.6240   14.7580    1.9660 N   0  0  0  0  0  0  0  0  0  0  0  0
   -5.2890   10.3030   -1.8820 C   0  0  0  0  0  0  0  0  0  0  0  0
  1  2  2  0
  2  3  2  0
  2  4  1  0
  2  5  1  0
  6  4  1  6
  5  7  2  0
  5  8  1  0
  6  9  1  0
  6 10  1  0
  7 11  1  0
  8 12  2  0
  9 13  1  0
 10 14  2  0
  9 15  1  0
 14 15  1  0
 11 16  2  0
 12 16  1  0
M  END
