mac-x0193-mac-x0344
     RDKit          3D

 21 22  0  0  0  0  0  0  0  0999 V2000
    0.3920   10.5830   -3.2390 O   0  0  0  0  0  0  0  0  0  0  0  0
    0.6060   11.8980   -3.4150 C   0  0  0  0  0  0  0  0  0  0  0  0
    1.0380   12.5670   -2.4840 O   0  0  0  0  0  0  0  0  0  0  0  0
    0.2710   12.4140   -4.8470 C   0  0  2  0  0  0  0  0  0  0  0  0
    0.2650   11.3540   -5.8800 N   0  0  0  0  0  0  0  0  0  0  0  0
    1.1550   13.4480   -5.2600 O   0  0  0  0  0  0  0  0  0  0  0  0
    1.1490   11.5640   -6.9050 C   0  0  0  0  0  0  0  0  0  0  0  0
   -0.8510   10.5230   -6.1620 C   0  0  0  0  0  0  0  0  0  0  0  0
    2.2800   11.9400   -6.6530 O   0  0  0  0  0  0  0  0  0  0  0  0
    0.6380   11.3830   -8.1860 N   0  0  0  0  0  0  0  0  0  0  0  0
   -0.5960    9.4460   -7.0050 C   0  0  0  0  0  0  0  0  0  0  0  0
   -2.1490   10.6970   -5.6860 C   0  0  0  0  0  0  0  0  0  0  0  0
    1.0140   10.3430   -9.1720 C   0  0  0  0  0  0  0  0  0  0  0  0
   -1.5910    8.5550   -7.3780 C   0  0  0  0  0  0  0  0  0  0  0  0
   -3.1590    9.7980   -6.0530 C   0  0  0  0  0  0  0  0  0  0  0  0
    1.3660    8.9520   -8.6480 C   0  0  0  0  0  0  0  0  0  0  0  0
   -0.0350   10.1690  -10.2580 C   0  0  0  0  0  0  0  0  0  0  0  0
   -2.8800    8.7300   -6.9000 C   0  0  0  0  0  0  0  0  0  0  0  0
    2.0280    8.0910   -9.7350 C   0  0  0  0  0  0  0  0  0  0  0  0
    0.5450    9.3560  -11.4230 C   0  0  0  0  0  0  0  0  0  0  0  0
    1.2000    8.0230  -11.0170 C   0  0  0  0  0  0  0  0  0  0  0  0
  1  2  1  0
  2  3  2  0
  2  4  1  0
  4  5  1  0
  4  6  1  6
  5  7  1  0
  5  8  1  0
  7  9  2  0
  7 10  1  0
  8 11  2  0
  8 12  1  0
 10 13  1  0
 11 14  1  0
 12 15  2  0
 13 16  1  0
 13 17  1  0
 14 18  2  0
 15 18  1  0
 16 19  1  0
 17 20  1  0
 19 21  1  0
 20 21  1  0
M  END
