mac-x0212-diamond-x0852_0_B
     RDKit          3D

 24 25  0  0  0  0  0  0  0  0999 V2000
   -6.6180   12.5280    1.5470 C   0  0  0  0  0  0  0  0  0  0  0  0
   -6.9940   14.0780    0.7650 S   0  0  2  0  0  0  0  0  0  0  0  0
   -8.2910   14.6210    1.3770 N   0  0  0  0  0  0  0  0  0  0  0  0
   -6.8930   13.8460   -0.6510 O   0  0  0  0  0  0  0  0  0  0  0  0
   -5.6470   15.0570    1.1190 N   0  0  0  0  0  0  0  0  0  0  0  0
   -4.6000   14.9490    0.1690 C   0  0  0  0  0  0  0  0  0  0  0  0
   -8.5140   15.2390    2.6680 C   0  0  0  0  0  0  0  0  0  0  0  0
   -3.3300   14.4400    0.4380 C   0  0  0  0  0  0  0  0  0  0  0  0
   -4.8740   15.3640   -1.1560 C   0  0  0  0  0  0  0  0  0  0  0  0
   -7.8320   14.8300    3.8100 C   0  0  0  0  0  0  0  0  0  0  0  0
   -9.4480   16.2680    2.7400 C   0  0  0  0  0  0  0  0  0  0  0  0
  -10.4100   16.8150    1.1790 Br  0  0  0  0  0  0  0  0  0  0  0  0
   -2.3620   14.3240   -0.5730 C   0  0  0  0  0  0  0  0  0  0  0  0
   -3.9160   15.2510   -2.1720 C   0  0  0  0  0  0  0  0  0  0  0  0
   -8.0840   15.4550    5.0350 C   0  0  0  0  0  0  0  0  0  0  0  0
   -9.6800   16.8930    3.9690 C   0  0  0  0  0  0  0  0  0  0  0  0
   -7.3820   14.9900    6.1120 O   0  0  0  0  0  0  0  0  0  0  0  0
   -2.6600   14.7220   -1.8820 C   0  0  0  0  0  0  0  0  0  0  0  0
   -9.0130   16.4910    5.1110 C   0  0  0  0  0  0  0  0  0  0  0  0
   -1.6690   14.5880   -2.9830 C   0  0  0  0  0  0  0  0  0  0  0  0
   -9.3240   17.1670    6.3320 C   0  0  0  0  0  0  0  0  0  0  0  0
   -0.5170   14.2430   -2.7980 O   0  0  0  0  0  0  0  0  0  0  0  0
   -2.1760   14.8630   -4.2040 O   0  0  0  0  0  0  0  0  0  0  0  0
   -9.6420   17.6960    7.3160 N   0  0  0  0  0  0  0  0  0  0  0  0
  2  1  1  1
  2  3  2  0
  2  4  2  0
  2  5  1  0
  5  6  1  0
  3  7  1  0
  6  8  2  0
  6  9  1  0
  7 10  2  0
  7 11  1  0
 11 12  1  0
  8 13  1  0
  9 14  2  0
 10 15  1  0
 11 16  2  0
 15 17  1  0
 13 18  2  0
 14 18  1  0
 15 19  2  0
 16 19  1  0
 18 20  1  0
 19 21  1  0
 20 22  2  0
 20 23  1  0
 21 24  3  0
M  END
