mac-x0402-mac-x0555
     RDKit          3D

 11 12  0  0  0  0  0  0  0  0999 V2000
   -1.7570   14.8450   -3.3820 Cl  0  0  0  0  0  0  0  0  0  0  0  0
   -3.0760   14.8930   -2.2760 C   0  0  0  0  0  0  0  0  0  0  0  0
   -4.3640   15.0190   -2.7770 C   0  0  0  0  0  0  0  0  0  0  0  0
   -2.8360   14.8070   -0.9040 C   0  0  0  0  0  0  0  0  0  0  0  0
   -3.9440   14.8480   -0.0490 C   0  0  0  0  0  0  0  0  0  0  0  0
   -5.4540   15.0570   -1.9150 C   0  0  0  0  0  0  0  0  0  0  0  0
   -5.2460   14.9670   -0.5330 C   0  0  0  0  0  0  0  0  0  0  0  0
   -4.0030   14.7700    1.6600 S   0  0  0  0  0  0  0  0  0  0  0  0
   -5.7190   14.8930    1.6010 C   0  0  0  0  0  0  0  0  0  0  0  0
   -6.2380   14.9850    0.4130 N   0  0  0  0  0  0  0  0  0  0  0  0
   -6.4900   14.9000    2.6970 N   0  0  0  0  0  0  0  0  0  0  0  0
  1  2  1  0
  2  3  2  0
  2  4  1  0
  4  5  2  0
  3  6  1  0
  5  7  1  0
  6  7  2  0
  5  8  1  0
  8  9  1  0
  7 10  1  0
  9 10  2  0
  9 11  1  0
M  END
