mac-x0319-mac-x0284
     RDKit          3D

 21 22  0  0  0  0  0  0  0  0999 V2000
    0.6760   10.4430   -2.3280 O   0  0  0  0  0  0  0  0  0  0  0  0
    0.4930   11.7690   -2.5420 C   0  0  0  0  0  0  0  0  0  0  0  0
   -0.1540   12.5290   -1.7310 N   0  0  0  0  0  0  0  0  0  0  0  0
    1.0950   12.3000   -3.8470 C   0  0  0  0  0  0  0  0  0  0  0  0
   -0.3460   13.9190   -2.1810 C   0  0  2  0  0  0  0  0  0  0  0  0
    0.5600   13.6730   -4.2110 C   0  0  0  0  0  0  0  0  0  0  0  0
    0.6200   14.8670   -1.7550 O   0  0  0  0  0  0  0  0  0  0  0  0
    1.2720   14.8690   -3.9520 C   0  0  0  0  0  0  0  0  0  0  0  0
   -0.6950   13.7650   -4.8180 C   0  0  0  0  0  0  0  0  0  0  0  0
   -1.7630   14.4550   -1.9850 C   0  0  0  0  0  0  0  0  0  0  0  0
    0.7010   16.1020   -4.2970 C   0  0  0  0  0  0  0  0  0  0  0  0
   -1.2390   15.0070   -5.1530 C   0  0  0  0  0  0  0  0  0  0  0  0
   -2.2000   14.7910   -0.6910 C   0  0  0  0  0  0  0  0  0  0  0  0
   -2.6830   14.6370   -3.0340 C   0  0  0  0  0  0  0  0  0  0  0  0
    1.3740   17.2520   -4.0410 O   0  0  0  0  0  0  0  0  0  0  0  0
   -2.4090   14.3530   -4.3300 O   0  0  0  0  0  0  0  0  0  0  0  0
   -0.5450   16.1760   -4.8920 C   0  0  0  0  0  0  0  0  0  0  0  0
   -3.4950   15.2920   -0.4590 C   0  0  0  0  0  0  0  0  0  0  0  0
   -3.9590   15.1290   -2.8150 C   0  0  0  0  0  0  0  0  0  0  0  0
   -3.9350   15.6490    0.9260 C   0  0  0  0  0  0  0  0  0  0  0  0
   -4.3690   15.4580   -1.5360 C   0  0  0  0  0  0  0  0  0  0  0  0
  1  2  1  0
  2  3  2  3
  2  4  1  0
  3  5  1  0
  4  6  1  0
  5  7  1  1
  6  8  2  0
  6  9  1  0
  5 10  1  0
  8 11  1  0
  9 12  2  0
 10 13  2  0
 10 14  1  0
 11 15  1  0
 14 16  1  0
 11 17  2  0
 12 17  1  0
 13 18  1  0
 14 19  2  0
 18 20  1  0
 18 21  2  0
 19 21  1  0
M  END
