mac-x0404-diamond-x0962_1_A
     RDKit          3D

 23 25  0  0  0  0  0  0  0  0999 V2000
    1.1810   13.0640   -2.1270 O   0  0  0  0  0  0  0  0  0  0  0  0
    1.1270   12.1790   -3.1430 C   0  0  0  0  0  0  0  0  0  0  0  0
    0.5140   11.1350   -2.9840 O   0  0  0  0  0  0  0  0  0  0  0  0
    1.8850   12.6380   -4.3950 C   0  0  0  0  0  0  0  0  0  0  0  0
    1.6420   13.9590   -4.8770 O   0  0  0  0  0  0  0  0  0  0  0  0
    0.3510   14.3700   -4.7260 C   0  0  0  0  0  0  0  0  0  0  0  0
    0.0220   15.7170   -4.9490 C   0  0  0  0  0  0  0  0  0  0  0  0
   -0.5910   13.4290   -4.3520 C   0  0  0  0  0  0  0  0  0  0  0  0
   -1.3000   16.1350   -4.7710 C   0  0  0  0  0  0  0  0  0  0  0  0
   -1.8880   13.8240   -4.1630 C   0  0  0  0  0  0  0  0  0  0  0  0
    0.9900   16.6410   -5.3410 C   0  0  0  0  0  0  0  0  0  0  0  0
   -2.2440   15.1480   -4.3530 C   0  0  0  0  0  0  0  0  0  0  0  0
   -1.5830   17.5030   -5.0170 C   0  0  0  0  0  0  0  0  0  0  0  0
    0.6990   17.9780   -5.5720 C   0  0  0  0  0  0  0  0  0  0  0  0
   -3.6590   15.4660   -4.0810 C   0  0  0  0  0  0  0  0  0  0  0  0
   -0.6020   18.4110   -5.4120 C   0  0  0  0  0  0  0  0  0  0  0  0
   -4.1070   15.2740   -2.6620 C   0  0  0  0  0  0  0  0  0  0  0  0
   -4.6440   15.1200   -1.5780 C   0  0  0  0  0  0  0  0  0  0  0  0
   -5.4840   14.9110   -0.4430 C   0  0  0  0  0  0  0  0  0  0  0  0
   -5.1540   14.8680    0.8920 N   0  0  0  0  0  0  0  0  0  0  0  0
   -6.8440   14.7040   -0.4640 C   0  0  0  0  0  0  0  0  0  0  0  0
   -6.3150   14.6400    1.5920 C   0  0  0  0  0  0  0  0  0  0  0  0
   -7.3540   14.5350    0.7960 N   0  0  0  0  0  0  0  0  0  0  0  0
  1  2  1  0
  2  3  2  0
  2  4  1  0
  4  5  1  0
  5  6  1  0
  6  7  2  0
  6  8  1  0
  7  9  1  0
  8 10  2  0
  7 11  1  0
  9 12  2  0
 10 12  1  0
  9 13  1  0
 11 14  2  0
 12 15  1  0
 13 16  2  0
 14 16  1  0
 15 17  1  0
 17 18  3  0
 18 19  1  0
 19 20  1  0
 19 21  2  0
 20 22  1  0
 21 23  1  0
 22 23  2  0
M  END
