mac-x0284-mac-x0392
     RDKit          3D

 17 19  0  0  0  0  0  0  0  0999 V2000
   -4.7340   15.6700   -0.5460 C   0  0  0  0  0  0  0  0  0  0  0  0
   -3.9190   15.3170   -1.7740 C   0  0  0  0  0  0  0  0  0  0  0  0
   -4.4850   15.2430   -3.0190 C   0  0  0  0  0  0  0  0  0  0  0  0
   -2.5600   15.0530   -1.7080 C   0  0  0  0  0  0  0  0  0  0  0  0
   -1.7190   14.7240   -2.8160 C   0  0  0  0  0  0  0  0  0  0  0  0
   -3.7020   14.9290   -4.1470 C   0  0  0  0  0  0  0  0  0  0  0  0
   -0.4000   14.5260   -2.2490 C   0  0  0  0  0  0  0  0  0  0  0  0
   -2.3140   14.6710   -4.0540 C   0  0  0  0  0  0  0  0  0  0  0  0
   -1.6080   14.3730   -5.1770 O   0  0  0  0  0  0  0  0  0  0  0  0
    0.3000   14.3770   -1.0690 N   0  0  0  0  0  0  0  0  0  0  0  0
   -1.6250   14.6370   -1.7390 O   0  0  0  0  0  0  0  0  0  0  0  0
   -0.6130   14.4300    0.0110 C   0  0  0  0  0  0  0  0  0  0  0  0
   -1.8090   14.5900   -0.5030 C   0  0  0  0  0  0  0  0  0  0  0  0
   -3.0440   14.7010    0.0620 C   0  0  0  0  0  0  0  0  0  0  0  0
   -0.6160   14.3640    1.3930 C   0  0  0  0  0  0  0  0  0  0  0  0
   -2.9780   14.6360    1.3930 C   0  0  0  0  0  0  0  0  0  0  0  0
   -1.8190   14.4730    2.0540 N   0  0  0  0  0  0  0  0  0  0  0  0
  1  2  1  0
  2  3  2  0
  2  4  1  0
  4  5  2  0
  3  6  1  0
  5  7  1  0
  5  8  1  0
  6  8  2  0
  8  9  1  0
  7 10  2  0
  7 11  1  0
 10 12  1  0
 11 13  1  0
 12 13  2  0
 13 14  1  0
 12 15  1  0
 14 16  2  0
 15 17  2  0
 16 17  1  0
M  END
