mac-x0188-diamond-x0471_0_A
     RDKit          3D

 26 28  0  0  0  0  0  0  0  0999 V2000
    1.1970   13.1680   -5.0860 C   0  0  0  0  0  0  0  0  0  0  0  0
   -0.1790   13.5410   -4.6590 C   0  0  0  0  0  0  0  0  0  0  0  0
   -1.2930   13.5590   -5.3620 O   0  0  0  0  0  0  0  0  0  0  0  0
   -0.4750   13.9480   -3.3730 C   0  0  0  0  0  0  0  0  0  0  0  0
    0.3980   14.0920   -2.2470 C   0  0  0  0  0  0  0  0  0  0  0  0
   -2.2860   13.9600   -4.5860 N   0  0  0  0  0  0  0  0  0  0  0  0
   -1.8290   14.2060   -3.3710 C   0  0  0  0  0  0  0  0  0  0  0  0
    0.7290   15.2600   -1.8690 O   0  0  0  0  0  0  0  0  0  0  0  0
    0.9390   13.0490   -1.5260 O   0  0  0  0  0  0  0  0  0  0  0  0
   -2.6000   14.6910   -2.1760 C   0  0  1  0  0  0  0  0  0  0  0  0
   -3.8620   15.3650   -2.5310 C   0  0  0  0  0  0  0  0  0  0  0  0
   -2.9060   13.5860   -1.2380 C   0  0  0  0  0  0  0  0  0  0  0  0
   -4.9520   15.3150   -1.7960 C   0  0  0  0  0  0  0  0  0  0  0  0
   -3.9960   13.5280   -0.4980 C   0  0  0  0  0  0  0  0  0  0  0  0
   -5.0170   14.5520   -0.5340 C   0  0  2  0  0  0  0  0  0  0  0  0
   -6.3730   13.9070   -0.4310 N   0  0  0  0  0  0  0  0  0  0  0  0
   -4.9140   15.4030    0.6880 C   0  0  0  0  0  0  0  0  0  0  0  0
   -7.0620   14.5680    0.6310 C   0  0  2  0  0  0  0  0  0  0  0  0
   -5.9920   14.9010    1.5220 N   0  0  0  0  0  0  0  0  0  0  0  0
   -8.0990   13.6860    1.3650 C   0  0  0  0  0  0  0  0  0  0  0  0
   -8.5900   14.4180    2.4720 N   0  0  0  0  0  0  0  0  0  0  0  0
   -9.0720   15.1750    3.4940 C   0  0  0  0  0  0  0  0  0  0  0  0
   -9.5610   16.3630    3.4100 O   0  0  0  0  0  0  0  0  0  0  0  0
   -9.1630   14.7560    4.9860 C   0  0  0  0  0  0  0  0  0  0  0  0
   -9.4290   13.2990    5.1490 C   0  0  0  0  0  0  0  0  0  0  0  0
   -7.9200   15.1390    5.7350 C   0  0  0  0  0  0  0  0  0  0  0  0
  1  2  1  0
  2  3  1  0
  2  4  2  0
  4  5  1  0
  3  6  1  0
  4  7  1  0
  6  7  2  0
  5  8  2  0
  5  9  1  0
 10  7  1  6
 10 11  1  0
 10 12  1  0
 11 13  2  0
 12 14  2  0
 15 13  1  6
 14 15  1  0
 15 16  1  0
 15 17  1  0
 16 18  1  0
 17 19  1  0
 18 19  1  0
 18 20  1  1
 20 21  1  0
 21 22  1  0
 22 23  2  0
 22 24  1  0
 24 25  1  0
 24 26  1  0
M  END
