mac-x0576-mac-x0453
     RDKit          3D

 15 16  0  0  0  0  0  0  0  0999 V2000
   -0.0440   13.8980    1.5270 N   0  0  0  0  0  0  0  0  0  0  0  0
   -0.5090   14.9640    0.7340 C   0  0  2  0  0  0  0  0  0  0  0  0
   -1.8000   15.2980    1.2540 N   0  0  0  0  0  0  0  0  0  0  0  0
   -0.5750   14.4070   -0.5570 N   0  0  0  0  0  0  0  0  0  0  0  0
   -1.6030   14.6630   -1.4150 C   0  0  0  0  0  0  0  0  0  0  0  0
   -2.8840   14.4850    0.7290 C   0  0  2  0  0  0  0  0  0  0  0  0
   -1.3700   14.9910   -2.5750 O   0  0  0  0  0  0  0  0  0  0  0  0
   -3.0010   14.5090   -0.8270 C   0  0  1  0  0  0  0  0  0  0  0  0
   -4.1810   14.6270    1.3180 N   0  0  0  0  0  0  0  0  0  0  0  0
   -5.3040   14.8550    0.5650 C   0  0  0  0  0  0  0  0  0  0  0  0
   -3.9380   15.4960   -1.4420 N   0  0  0  0  0  0  0  0  0  0  0  0
   -6.3940   14.2780    0.9090 N   0  0  0  0  0  0  0  0  0  0  0  0
   -5.1780   15.7590   -0.6670 C   0  0  0  0  0  0  0  0  0  0  0  0
   -6.3930   13.4200    2.0550 C   0  0  0  0  0  0  0  0  0  0  0  0
   -7.2370   13.9860    3.0700 N   0  0  0  0  0  0  0  0  0  0  0  0
  2  1  1  1
  2  3  1  0
  2  4  1  0
  4  5  1  0
  6  3  1  1
  5  7  2  0
  5  8  1  0
  6  8  1  0
  6  9  1  0
  9 10  1  0
  8 11  1  1
 10 12  2  3
 10 13  1  0
 11 13  1  0
 12 14  1  0
 14 15  1  0
M  END
