mac-x0439-diamond-x0742_0_A
     RDKit          3D

 30 34  0  0  0  0  0  0  0  0999 V2000
   -3.1170   15.8230   -5.4920 Cl  0  0  0  0  0  0  0  0  0  0  0  0
   -1.6680   16.7540   -5.5180 C   0  0  0  0  0  0  0  0  0  0  0  0
   -0.6410   16.5220   -4.4970 C   0  0  1  0  0  0  0  0  0  0  0  0
   -1.4400   17.7200   -6.4190 C   0  0  0  0  0  0  0  0  0  0  0  0
   -0.3560   15.3190   -3.6370 C   0  0  0  0  0  0  0  0  0  0  0  0
    0.7350   16.8850   -4.8480 C   0  0  0  0  0  0  0  0  0  0  0  0
   -0.1750   18.4530   -6.4270 C   0  0  0  0  0  0  0  0  0  0  0  0
    0.9830   15.2020   -3.5300 C   0  0  0  0  0  0  0  0  0  0  0  0
    1.6320   16.1450   -4.2890 N   0  0  0  0  0  0  0  0  0  0  0  0
    0.9040   18.0790   -5.7060 C   0  0  0  0  0  0  0  0  0  0  0  0
    1.8240   14.2410   -2.7160 C   0  0  0  0  0  0  0  0  0  0  0  0
    3.1050   14.5680   -2.7990 O   0  0  0  0  0  0  0  0  0  0  0  0
    1.5210   13.2520   -1.9970 N   0  0  0  0  0  0  0  0  0  0  0  0
    0.2210   12.7480   -1.7790 C   0  0  0  0  0  0  0  0  0  0  0  0
   -0.6540   13.4180   -0.7510 C   0  0  0  0  0  0  0  0  0  0  0  0
   -0.4170   13.6450    0.6320 C   0  0  0  0  0  0  0  0  0  0  0  0
   -1.8450   13.8290   -1.2510 C   0  0  0  0  0  0  0  0  0  0  0  0
   -1.3300   14.2200    1.4890 N   0  0  0  0  0  0  0  0  0  0  0  0
   -2.7600   14.4000   -0.4430 C   0  0  0  0  0  0  0  0  0  0  0  0
   -4.0670   14.8530   -0.9460 C   0  0  2  0  0  0  0  0  0  0  0  0
   -2.5030   14.5670    0.8940 C   0  0  0  0  0  0  0  0  0  0  0  0
   -5.2180   14.2230   -0.1740 C   0  0  1  0  0  0  0  0  0  0  0  0
   -4.4880   14.8020   -2.4130 C   0  0  0  0  0  0  0  0  0  0  0  0
   -3.6370   15.1530    1.6810 C   0  0  0  0  0  0  0  0  0  0  0  0
   -5.5440   12.7120   -0.3980 C   0  0  0  0  0  0  0  0  0  0  0  0
   -5.0000   14.4870    1.3370 C   0  0  0  0  0  0  0  0  0  0  0  0
   -6.3430   15.0240   -0.8530 C   0  0  0  0  0  0  0  0  0  0  0  0
   -6.0230   14.8210   -2.3380 C   0  0  0  0  0  0  0  0  0  0  0  0
   -5.1300   12.1210   -1.4110 O   0  0  0  0  0  0  0  0  0  0  0  0
   -6.3690   11.9450    0.6010 C   0  0  0  0  0  0  0  0  0  0  0  0
  1  2  1  0
  2  3  1  0
  2  4  2  0
  3  5  1  6
  3  6  1  0
  4  7  1  0
  5  8  2  0
  6  9  2  0
  8  9  1  0
  6 10  1  0
  7 10  2  0
  8 11  1  0
 11 12  1  0
 11 13  2  3
 13 14  1  0
 14 15  1  0
 15 16  2  0
 15 17  1  0
 16 18  1  0
 17 19  2  0
 19 20  1  0
 18 21  2  0
 19 21  1  0
 20 22  1  0
 20 23  1  6
 21 24  1  0
 22 25  1  1
 22 26  1  0
 24 26  1  0
 22 27  1  0
 23 28  1  0
 27 28  1  0
 25 29  2  0
 25 30  1  0
M  END
