mac-x0576-mac-x0527
     RDKit          3D

 22 25  0  0  0  0  0  0  0  0999 V2000
    0.2450   14.2630    1.6540 N   0  0  0  0  0  0  0  0  0  0  0  0
   -0.7160   14.9570    0.8760 C   0  0  2  0  0  0  0  0  0  0  0  0
   -1.9420   14.4960    1.5120 N   0  0  0  0  0  0  0  0  0  0  0  0
   -0.5260   14.8900   -0.5660 N   0  0  0  0  0  0  0  0  0  0  0  0
   -1.6360   15.0940   -1.3520 C   0  0  0  0  0  0  0  0  0  0  0  0
   -3.0180   14.4770    0.5550 C   0  0  2  0  0  0  0  0  0  0  0  0
   -1.8860   15.0430   -2.6680 C   0  0  0  0  0  0  0  0  0  0  0  0
   -2.8310   15.4760   -0.5670 C   0  0  2  0  0  0  0  0  0  0  0  0
   -4.2530   14.7490    1.2160 N   0  0  0  0  0  0  0  0  0  0  0  0
   -3.3500   15.3330   -2.7840 C   0  0  0  0  0  0  0  0  0  0  0  0
   -1.0720   14.7720   -3.9080 C   0  0  0  0  0  0  0  0  0  0  0  0
   -5.3870   14.9550    0.4610 C   0  0  0  0  0  0  0  0  0  0  0  0
   -3.8700   15.5470   -1.5090 N   0  0  0  0  0  0  0  0  0  0  0  0
   -6.4850   14.8730    1.0070 O   0  0  0  0  0  0  0  0  0  0  0  0
   -3.9480   15.3600   -3.8430 O   0  0  0  0  0  0  0  0  0  0  0  0
   -5.2470   15.2760   -1.0680 C   0  0  0  0  0  0  0  0  0  0  0  0
   -1.0230   13.3810   -4.5140 C   0  0  0  0  0  0  0  0  0  0  0  0
   -1.9340   12.3720   -4.1630 C   0  0  0  0  0  0  0  0  0  0  0  0
   -0.0250   13.0890   -5.4670 C   0  0  0  0  0  0  0  0  0  0  0  0
   -1.8490   11.1060   -4.7510 C   0  0  0  0  0  0  0  0  0  0  0  0
    0.0570   11.8280   -6.0510 C   0  0  0  0  0  0  0  0  0  0  0  0
   -0.8540   10.8360   -5.6930 C   0  0  0  0  0  0  0  0  0  0  0  0
  2  1  1  1
  2  3  1  0
  2  4  1  0
  4  5  1  0
  6  3  1  1
  5  7  2  0
  8  5  1  6
  6  8  1  0
  6  9  1  0
  7 10  1  0
  7 11  1  0
  9 12  1  0
  8 13  1  0
 10 13  1  0
 12 14  2  0
 10 15  2  0
 12 16  1  0
 13 16  1  0
 11 17  1  0
 17 18  2  0
 17 19  1  0
 18 20  1  0
 19 21  2  0
 20 22  2  0
 21 22  1  0
M  END
