mac-x0455-diamond-x0628_0_A
     RDKit          3D

 16 16  0  0  0  0  0  0  0  0999 V2000
   -2.3010   14.3360   -2.6210 C   0  0  0  0  0  0  0  0  0  0  0  0
   -1.0120   14.2560   -3.4510 C   0  0  1  0  0  0  0  0  0  0  0  0
   -0.9870   15.4530   -4.2530 O   0  0  0  0  0  0  0  0  0  0  0  0
    0.2150   14.2940   -2.4900 C   0  0  0  0  0  0  0  0  0  0  0  0
   -0.9740   13.0160   -4.3700 C   0  0  0  0  0  0  0  0  0  0  0  0
    0.8410   15.3110   -2.2550 O   0  0  0  0  0  0  0  0  0  0  0  0
    0.4530   13.0590   -1.9760 O   0  0  0  0  0  0  0  0  0  0  0  0
   -1.9540   12.0030   -4.2770 C   0  0  0  0  0  0  0  0  0  0  0  0
    0.0380   12.8450   -5.3350 C   0  0  0  0  0  0  0  0  0  0  0  0
    0.9420   12.1100   -2.8030 C   0  0  0  0  0  0  0  0  0  0  0  0
   -1.9150   10.8710   -5.1110 C   0  0  0  0  0  0  0  0  0  0  0  0
    0.0770   11.7180   -6.1630 C   0  0  0  0  0  0  0  0  0  0  0  0
    0.5990   10.9400   -2.8560 O   0  0  0  0  0  0  0  0  0  0  0  0
    2.0130   12.7120   -3.6800 C   0  0  0  0  0  0  0  0  0  0  0  0
   -0.8970   10.7190   -6.0600 C   0  0  0  0  0  0  0  0  0  0  0  0
   -0.8500    9.5020   -6.9530 C   0  0  0  0  0  0  0  0  0  0  0  0
  2  1  1  1
  2  3  1  0
  2  4  1  0
  2  5  1  0
  4  6  2  0
  4  7  1  0
  5  8  2  0
  5  9  1  0
  7 10  1  0
  8 11  1  0
  9 12  2  0
 10 13  2  0
 10 14  1  0
 11 15  2  0
 12 15  1  0
 15 16  1  0
M  END
