mac-x0397-diamond-x0950_0_A
     RDKit          3D

 19 20  0  0  0  0  0  0  0  0999 V2000
   -6.3360   15.1370   -2.5040 Cl  0  0  0  0  0  0  0  0  0  0  0  0
   -4.8140   14.9350   -1.7640 C   0  0  0  0  0  0  0  0  0  0  0  0
   -4.8490   14.8930   -0.3690 C   0  0  0  0  0  0  0  0  0  0  0  0
   -3.6110   14.8080   -2.4740 C   0  0  0  0  0  0  0  0  0  0  0  0
   -5.9580   14.9920    0.4510 N   0  0  0  0  0  0  0  0  0  0  0  0
   -3.6440   14.7270    0.2940 C   0  0  0  0  0  0  0  0  0  0  0  0
   -2.4080   14.6280   -1.7670 C   0  0  0  0  0  0  0  0  0  0  0  0
   -1.0550   14.4510   -2.4300 C   0  0  0  0  0  0  0  0  0  0  0  0
   -5.6030   14.9040    1.6960 C   0  0  0  0  0  0  0  0  0  0  0  0
   -3.9290   14.7110    1.9740 S   0  0  0  0  0  0  0  0  0  0  0  0
   -2.4270   14.5950   -0.3700 C   0  0  0  0  0  0  0  0  0  0  0  0
   -6.4880   14.9630    2.7000 N   0  0  0  0  0  0  0  0  0  0  0  0
   -0.1150   13.6980   -1.4620 C   0  0  0  0  0  0  0  0  0  0  0  0
    1.0280   13.0720   -2.0790 O   0  0  0  0  0  0  0  0  0  0  0  0
    0.8000   12.1670   -3.0730 C   0  0  0  0  0  0  0  0  0  0  0  0
    1.2330   12.7690   -4.4130 C   0  0  1  0  0  0  0  0  0  0  0  0
    0.3330   11.0460   -2.9130 O   0  0  0  0  0  0  0  0  0  0  0  0
    2.7300   13.0120   -4.3750 C   0  0  0  0  0  0  0  0  0  0  0  0
    0.8940   11.9820   -5.5450 O   0  0  0  0  0  0  0  0  0  0  0  0
  1  2  1  0
  2  3  2  0
  2  4  1  0
  3  5  1  0
  3  6  1  0
  4  7  2  0
  7  8  1  0
  5  9  2  0
  6 10  1  0
  9 10  1  0
  6 11  2  0
  7 11  1  0
  9 12  1  0
  8 13  1  0
 13 14  1  0
 14 15  1  0
 15 16  1  0
 15 17  2  0
 16 18  1  1
 16 19  1  0
M  END
