mac-x0228-mac-x0375
     RDKit          3D

 25 27  0  0  0  0  0  0  0  0999 V2000
   -1.0700   14.7030   -1.5030 O   0  0  0  0  0  0  0  0  0  0  0  0
   -1.9240   14.8750   -2.5240 C   0  0  0  0  0  0  0  0  0  0  0  0
   -1.5010   15.0400   -3.7380 N   0  0  0  0  0  0  0  0  0  0  0  0
   -3.3430   14.8900   -2.0840 C   0  0  0  0  0  0  0  0  0  0  0  0
   -0.0300   15.0650   -3.9100 C   0  0  0  0  0  0  0  0  0  0  0  0
   -3.6060   14.7000   -0.7130 C   0  0  0  0  0  0  0  0  0  0  0  0
   -4.4060   15.0960   -2.9820 C   0  0  0  0  0  0  0  0  0  0  0  0
    0.5420   14.0510   -4.9190 C   0  0  0  0  0  0  0  0  0  0  0  0
   -4.9190   14.7210   -0.2840 C   0  0  0  0  0  0  0  0  0  0  0  0
   -5.7310   15.1150   -2.5210 C   0  0  0  0  0  0  0  0  0  0  0  0
    0.2000   12.5810   -4.6520 C   0  0  2  0  0  0  0  0  0  0  0  0
   -5.9590   14.9260   -1.1730 C   0  0  0  0  0  0  0  0  0  0  0  0
   -5.4670   14.5420    1.0770 C   0  0  0  0  0  0  0  0  0  0  0  0
    0.8600   12.0470   -3.3790 C   0  0  0  0  0  0  0  0  0  0  0  0
    0.4540   11.7110   -5.7510 O   0  0  0  0  0  0  0  0  0  0  0  0
   -7.1990   14.9220   -0.5840 O   0  0  0  0  0  0  0  0  0  0  0  0
   -6.9500   14.3880    0.7380 C   0  0  0  0  0  0  0  0  0  0  0  0
    1.6230   12.9310   -2.7160 O   0  0  0  0  0  0  0  0  0  0  0  0
    0.7360   10.9220   -2.9240 O   0  0  0  0  0  0  0  0  0  0  0  0
   -0.5020   10.7830   -6.0340 C   0  0  0  0  0  0  0  0  0  0  0  0
   -0.3760    9.6400   -6.8140 C   0  0  0  0  0  0  0  0  0  0  0  0
   -1.7390   11.0660   -5.4380 C   0  0  0  0  0  0  0  0  0  0  0  0
   -1.4740    8.7910   -6.9910 C   0  0  0  0  0  0  0  0  0  0  0  0
   -2.8290   10.2230   -5.6140 C   0  0  0  0  0  0  0  0  0  0  0  0
   -2.7000    9.0820   -6.3910 C   0  0  0  0  0  0  0  0  0  0  0  0
  1  2  1  0
  2  3  2  3
  2  4  1  0
  3  5  1  0
  4  6  2  0
  4  7  1  0
  5  8  1  0
  6  9  1  0
  7 10  2  0
 11  8  1  6
  9 12  2  0
 10 12  1  0
  9 13  1  0
 11 14  1  0
 11 15  1  0
 12 16  1  0
 13 17  1  0
 16 17  1  0
 14 18  1  0
 14 19  2  0
 15 20  1  0
 20 21  2  0
 20 22  1  0
 21 23  1  0
 22 24  2  0
 23 25  2  0
 24 25  1  0
M  END
