mac-x0411-mac-x0345
     RDKit          3D

 25 26  0  0  0  0  0  0  0  0999 V2000
    0.7330    8.9020   -7.8020 Cl  0  0  0  0  0  0  0  0  0  0  0  0
   -0.5690    9.5270   -6.8500 C   0  0  0  0  0  0  0  0  0  0  0  0
   -0.5400   10.7890   -6.2080 C   0  0  0  0  0  0  0  0  0  0  0  0
   -1.6870    8.7030   -6.7460 C   0  0  0  0  0  0  0  0  0  0  0  0
    0.5660   11.6160   -6.2990 O   0  0  0  0  0  0  0  0  0  0  0  0
   -1.6780   11.2090   -5.4630 C   0  0  0  0  0  0  0  0  0  0  0  0
   -2.7920    9.1050   -6.0170 C   0  0  0  0  0  0  0  0  0  0  0  0
   -1.7960   12.5370   -4.7380 C   0  0  0  0  0  0  0  0  0  0  0  0
    0.9380   12.4270   -5.1780 C   0  0  0  0  0  0  0  0  0  0  0  0
   -2.7900   10.3430   -5.3840 C   0  0  0  0  0  0  0  0  0  0  0  0
    0.8290   11.9130   -3.7380 C   0  0  0  0  0  0  0  0  0  0  0  0
   -3.2560   12.7840   -4.3270 C   0  0  0  0  0  0  0  0  0  0  0  0
    1.3380   12.7570   -2.8180 O   0  0  0  0  0  0  0  0  0  0  0  0
    0.3510   10.8490   -3.3820 O   0  0  0  0  0  0  0  0  0  0  0  0
   -3.6870   14.2520   -4.3300 C   0  0  0  0  0  0  0  0  0  0  0  0
   -5.1350   14.4490   -4.8030 C   0  0  0  0  0  0  0  0  0  0  0  0
   -6.0720   14.8260   -3.7300 N   0  0  0  0  0  0  0  0  0  0  0  0
   -5.6420   14.9840   -2.4150 C   0  0  0  0  0  0  0  0  0  0  0  0
   -4.3600   15.3700   -2.0630 C   0  0  0  0  0  0  0  0  0  0  0  0
   -6.5910   14.7210   -1.4970 N   0  0  0  0  0  0  0  0  0  0  0  0
   -6.2790   14.8360   -0.1860 C   0  0  0  0  0  0  0  0  0  0  0  0
   -4.0430   15.4830   -0.7260 C   0  0  0  0  0  0  0  0  0  0  0  0
   -7.3890   14.5210    0.7760 C   0  0  0  0  0  0  0  0  0  0  0  0
   -5.0020   15.2180    0.2160 C   0  0  0  0  0  0  0  0  0  0  0  0
   -4.4490   15.4080    1.9880 Br  0  0  0  0  0  0  0  0  0  0  0  0
  1  2  1  0
  2  3  2  0
  2  4  1  0
  3  5  1  0
  3  6  1  0
  4  7  2  0
  6  8  1  0
  5  9  1  0
  6 10  2  0
  7 10  1  0
  9 11  1  0
  8 12  1  0
 11 13  1  0
 11 14  2  0
 12 15  1  0
 15 16  1  0
 16 17  1  0
 17 18  1  0
 18 19  2  0
 18 20  1  0
 20 21  2  0
 19 22  1  0
 21 23  1  0
 21 24  1  0
 22 24  2  0
 24 25  1  0
M  END
