mac-x0179-mac-x0348
     RDKit          3D

 26 29  0  0  0  0  0  0  0  0999 V2000
    1.6230   12.7210   -2.1440 O   0  0  0  0  0  0  0  0  0  0  0  0
    0.8190   12.0540   -2.9930 C   0  0  0  0  0  0  0  0  0  0  0  0
    0.6990   10.8470   -2.8930 O   0  0  0  0  0  0  0  0  0  0  0  0
    0.1270   12.9310   -4.0190 C   0  0  1  0  0  0  0  0  0  0  0  0
    0.8870   14.2710   -4.0460 C   0  0  0  0  0  0  0  0  0  0  0  0
   -0.2090   12.1600   -5.2440 N   0  0  0  0  0  0  0  0  0  0  0  0
    0.6660   11.7160   -6.2300 C   0  0  0  0  0  0  0  0  0  0  0  0
   -1.2650   11.2970   -5.1580 C   0  0  0  0  0  0  0  0  0  0  0  0
    0.1730   15.4270   -4.6730 C   0  0  0  0  0  0  0  0  0  0  0  0
    1.7800   12.1090   -6.5160 O   0  0  0  0  0  0  0  0  0  0  0  0
   -2.1450   11.2690   -4.3240 O   0  0  0  0  0  0  0  0  0  0  0  0
   -0.0090   10.5960   -6.9280 C   0  0  0  0  0  0  0  0  0  0  0  0
   -1.1870   10.3520   -6.2550 C   0  0  0  0  0  0  0  0  0  0  0  0
    0.7780   16.6000   -4.9870 C   0  0  0  0  0  0  0  0  0  0  0  0
   -1.1820   15.5590   -5.0690 C   0  0  0  0  0  0  0  0  0  0  0  0
    0.3460    9.8460   -8.0380 C   0  0  0  0  0  0  0  0  0  0  0  0
   -2.0750    9.3590   -6.6300 C   0  0  0  0  0  0  0  0  0  0  0  0
   -0.1060   17.4370   -5.5650 N   0  0  0  0  0  0  0  0  0  0  0  0
   -1.3290   16.8350   -5.6320 C   0  0  0  0  0  0  0  0  0  0  0  0
   -2.2930   14.7060   -5.0070 C   0  0  0  0  0  0  0  0  0  0  0  0
    0.2390   18.7430   -6.0300 C   0  0  0  0  0  0  0  0  0  0  0  0
   -0.5380    8.8300   -8.4430 C   0  0  0  0  0  0  0  0  0  0  0  0
   -1.7400    8.5880   -7.7430 C   0  0  0  0  0  0  0  0  0  0  0  0
   -3.5070   15.1370   -5.5100 C   0  0  0  0  0  0  0  0  0  0  0  0
   -2.5450   17.2780   -6.1380 C   0  0  0  0  0  0  0  0  0  0  0  0
   -3.6210   16.3860   -6.0600 C   0  0  0  0  0  0  0  0  0  0  0  0
  1  2  1  0
  2  3  2  0
  2  4  1  0
  4  5  1  6
  4  6  1  0
  6  7  1  0
  6  8  1  0
  5  9  1  0
  7 10  2  0
  8 11  2  0
  7 12  1  0
  8 13  1  0
 12 13  2  0
  9 14  2  0
  9 15  1  0
 12 16  1  0
 13 17  1  0
 14 18  1  0
 15 19  2  0
 18 19  1  0
 15 20  1  0
 18 21  1  0
 16 22  2  0
 17 23  2  0
 22 23  1  0
 20 24  2  0
 19 25  1  0
 24 26  1  0
 25 26  2  0
M  END
