mac-x0453-mac-x0338
     RDKit          3D

  9  9  0  0  0  0  0  0  0  0999 V2000
   -6.9740   14.2320    2.3920 N   0  0  0  0  0  0  0  0  0  0  0  0
   -6.1520   13.9850    1.1910 C   0  0  0  0  0  0  0  0  0  0  0  0
   -4.6660   14.4120    1.3530 C   0  0  2  0  0  0  0  0  0  0  0  0
   -4.5180   15.6490    2.1340 N   0  0  0  0  0  0  0  0  0  0  0  0
   -3.9920   14.6200    0.0360 C   0  0  0  0  0  0  0  0  0  0  0  0
   -2.6650   14.4310   -0.2680 C   0  0  0  0  0  0  0  0  0  0  0  0
   -4.6810   15.0530   -1.0810 N   0  0  0  0  0  0  0  0  0  0  0  0
   -2.5520   14.7500   -1.5930 N   0  0  0  0  0  0  0  0  0  0  0  0
   -3.7870   15.1190   -2.0390 C   0  0  0  0  0  0  0  0  0  0  0  0
  1  2  1  0
  2  3  1  0
  3  4  1  1
  3  5  1  0
  5  6  2  0
  5  7  1  0
  6  8  1  0
  7  9  2  0
  8  9  1  0
M  END
