mac-x0271-mac-x0392
     RDKit          3D

 20 22  0  0  0  0  0  0  0  0999 V2000
   -4.0400   13.9360   -3.0160 O   0  0  0  0  0  0  0  0  0  0  0  0
   -4.3020   14.9540   -2.0520 C   0  0  2  0  0  0  0  0  0  0  0  0
   -3.3940   14.8450   -0.7620 C   0  0  2  0  0  0  0  0  0  0  0  0
   -5.8240   15.0740   -1.8740 C   0  0  0  0  0  0  0  0  0  0  0  0
   -6.2970   14.9170   -0.4790 C   0  0  0  0  0  0  0  0  0  0  0  0
   -4.0770   15.6080    0.4110 C   0  0  0  0  0  0  0  0  0  0  0  0
   -1.8750   14.5230   -0.9650 C   0  0  1  0  0  0  0  0  0  0  0  0
   -3.4360   13.6580    0.1290 N   0  0  0  0  0  0  0  0  0  0  0  0
   -1.1360   14.9230   -2.2270 C   0  0  0  0  0  0  0  0  0  0  0  0
   -5.5110   15.1450    0.5780 C   0  0  0  0  0  0  0  0  0  0  0  0
   -7.6480   14.5100   -0.3470 O   0  0  0  0  0  0  0  0  0  0  0  0
   -1.2840   14.7230    0.4190 C   0  0  1  0  0  0  0  0  0  0  0  0
   -2.5160   14.2140    1.1900 C   0  0  0  0  0  0  0  0  0  0  0  0
   -0.0560   13.9410    0.6160 N   0  0  0  0  0  0  0  0  0  0  0  0
   -1.6550   15.1390   -3.3140 O   0  0  0  0  0  0  0  0  0  0  0  0
    0.2000   15.0210   -2.1300 O   0  0  0  0  0  0  0  0  0  0  0  0
   -6.0900   14.9310    1.8860 C   0  0  0  0  0  0  0  0  0  0  0  0
   -8.2910   14.7270    0.8350 C   0  0  0  0  0  0  0  0  0  0  0  0
   -9.5040   14.9160    0.9250 O   0  0  0  0  0  0  0  0  0  0  0  0
   -7.4190   14.7260    2.0250 C   0  0  0  0  0  0  0  0  0  0  0  0
  2  1  1  6
  2  3  1  0
  2  4  1  0
  4  5  1  0
  3  6  1  1
  3  7  1  0
  3  8  1  0
  7  9  1  6
  5 10  2  0
  6 10  1  0
  5 11  1  0
  7 12  1  0
  8 13  1  0
 12 13  1  0
 12 14  1  6
  9 15  2  0
  9 16  1  0
 10 17  1  0
 11 18  1  0
 18 19  2  0
 17 20  2  0
 18 20  1  0
M  END
