mac-x0396-diamond-x0837_0_A
     RDKit          3D

  9  9  0  0  0  0  0  0  0  0999 V2000
   -2.9370   15.1000    0.9960 N   0  0  0  0  0  0  0  0  0  0  0  0
   -3.6380   15.0950   -0.1810 C   0  0  0  0  0  0  0  0  0  0  0  0
   -3.0640   15.2210   -1.2500 O   0  0  0  0  0  0  0  0  0  0  0  0
   -5.1010   14.9140   -0.1020 C   0  0  0  0  0  0  0  0  0  0  0  0
   -5.8650   14.9500   -1.2620 C   0  0  0  0  0  0  0  0  0  0  0  0
   -5.7630   14.7030    1.1000 C   0  0  0  0  0  0  0  0  0  0  0  0
   -7.2130   14.7840   -1.2740 N   0  0  0  0  0  0  0  0  0  0  0  0
   -7.1440   14.5300    1.1160 C   0  0  0  0  0  0  0  0  0  0  0  0
   -7.8220   14.5790   -0.0890 C   0  0  0  0  0  0  0  0  0  0  0  0
  1  2  1  0
  2  3  2  0
  2  4  1  0
  4  5  2  0
  4  6  1  0
  5  7  1  0
  6  8  2  0
  7  9  2  0
  8  9  1  0
M  END
