mac-x0387-mac-x0341
     RDKit          3D

 18 20  0  0  0  0  0  0  0  0999 V2000
   -3.6820   14.9690    1.9760 N   0  0  0  0  0  0  0  0  0  0  0  0
   -2.5780   14.8830    1.1550 C   0  0  0  0  0  0  0  0  0  0  0  0
   -1.4100   14.9890    1.7930 N   0  0  0  0  0  0  0  0  0  0  0  0
   -2.6760   14.6950   -0.2290 C   0  0  0  0  0  0  0  0  0  0  0  0
   -1.4270   14.6540   -0.9150 C   0  0  0  0  0  0  0  0  0  0  0  0
   -0.2660   14.9300    1.1060 C   0  0  0  0  0  0  0  0  0  0  0  0
   -4.0130   14.4940   -1.0190 C   0  0  2  0  0  0  0  0  0  0  0  0
   -0.2170   14.7720   -0.2370 C   0  0  0  0  0  0  0  0  0  0  0  0
   -1.3160   14.4880   -2.3540 C   0  0  0  0  0  0  0  0  0  0  0  0
   -3.7780   14.2080   -2.5440 C   0  0  0  0  0  0  0  0  0  0  0  0
   -5.3120   15.3280   -0.9820 C   0  0  0  0  0  0  0  0  0  0  0  0
   -4.6130   13.2310   -0.3650 C   0  0  0  0  0  0  0  0  0  0  0  0
   -5.6760   16.0220   -1.9050 O   0  0  0  0  0  0  0  0  0  0  0  0
   -2.3940   14.2900   -3.1040 C   0  0  0  0  0  0  0  0  0  0  0  0
   -6.1770   15.1640    0.0670 N   0  0  0  0  0  0  0  0  0  0  0  0
   -5.0800   13.4140    1.0400 N   0  0  0  0  0  0  0  0  0  0  0  0
   -5.7160   14.6730    1.2870 C   0  0  2  0  0  0  0  0  0  0  0  0
   -6.8650   14.3990    2.0770 N   0  0  0  0  0  0  0  0  0  0  0  0
  1  2  1  0
  2  3  2  0
  2  4  1  0
  4  5  2  0
  3  6  1  0
  4  7  1  0
  5  8  1  0
  6  8  2  0
  5  9  1  0
  7 10  1  6
  7 11  1  0
  7 12  1  0
 11 13  2  0
  9 14  2  0
 10 14  1  0
 11 15  1  0
 12 16  1  0
 15 17  1  0
 16 17  1  0
 17 18  1  1
M  END
