mac-x0139-mac-x0204
     RDKit          3D

 23 25  0  0  0  0  0  0  0  0999 V2000
   -1.9040   15.8550   -2.9770 C   0  0  0  0  0  0  0  0  0  0  0  0
   -0.7370   15.7570   -2.0860 N   0  0  0  0  0  0  0  0  0  0  0  0
    0.3990   15.0000   -2.6660 C   0  0  0  0  0  0  0  0  0  0  0  0
   -1.0620   15.4150   -0.7800 C   0  0  0  0  0  0  0  0  0  0  0  0
   -0.0970   13.6080   -3.0560 C   0  0  2  0  0  0  0  0  0  0  0  0
   -2.3450   15.4070   -0.3670 C   0  0  0  0  0  0  0  0  0  0  0  0
   -0.0170   15.0750    0.0610 N   0  0  0  0  0  0  0  0  0  0  0  0
    0.9960   12.5630   -3.1350 C   0  0  0  0  0  0  0  0  0  0  0  0
   -2.6130   15.0440    1.0320 C   0  0  0  0  0  0  0  0  0  0  0  0
   -0.3180   14.7470    1.2710 C   0  0  0  0  0  0  0  0  0  0  0  0
   -3.6420   15.6650   -0.9010 C   0  0  0  0  0  0  0  0  0  0  0  0
   -1.1930   13.6770   -4.0880 C   0  0  0  0  0  0  0  0  0  0  0  0
    2.0970   12.5810   -2.6280 O   0  0  0  0  0  0  0  0  0  0  0  0
    0.6360   11.4770   -3.8500 O   0  0  0  0  0  0  0  0  0  0  0  0
   -1.5590   14.7160    1.8010 N   0  0  0  0  0  0  0  0  0  0  0  0
   -3.8750   15.1080    1.3130 N   0  0  0  0  0  0  0  0  0  0  0  0
   -4.4770   15.4800    0.1250 C   0  0  0  0  0  0  0  0  0  0  0  0
   -1.5450   14.9010   -4.6760 C   0  0  0  0  0  0  0  0  0  0  0  0
   -1.9060   12.5620   -4.4910 C   0  0  0  0  0  0  0  0  0  0  0  0
   -2.5690   14.9640   -5.6000 C   0  0  0  0  0  0  0  0  0  0  0  0
   -2.9090   12.5890   -5.4000 N   0  0  0  0  0  0  0  0  0  0  0  0
   -2.8890   16.1800   -6.1400 O   0  0  0  0  0  0  0  0  0  0  0  0
   -3.2190   13.7930   -5.9310 C   0  0  0  0  0  0  0  0  0  0  0  0
  1  2  1  0
  2  3  1  0
  2  4  1  0
  5  3  1  6
  4  6  2  0
  4  7  1  0
  5  8  1  0
  6  9  1  0
  7 10  2  0
  6 11  1  0
  5 12  1  0
  8 13  2  0
  8 14  1  0
  9 15  1  0
 10 15  1  0
  9 16  2  0
 11 17  2  0
 16 17  1  0
 12 18  2  0
 12 19  1  0
 18 20  1  0
 19 21  2  0
 20 22  1  0
 20 23  2  0
 21 23  1  0
M  END
