mac-x0123-mac-x0385
     RDKit          3D

 21 24  0  0  0  0  0  0  0  0999 V2000
   -4.4590   15.0810    1.5850 N   0  0  0  0  0  0  0  0  0  0  0  0
   -5.4610   14.5740    0.7840 C   0  0  0  0  0  0  0  0  0  0  0  0
   -6.7270   14.4300    1.1640 C   0  0  0  0  0  0  0  0  0  0  0  0
   -3.2830   15.2560    0.8710 C   0  0  0  0  0  0  0  0  0  0  0  0
   -5.1270   14.1830   -0.5600 N   0  0  0  0  0  0  0  0  0  0  0  0
   -3.4900   15.7100   -0.4190 C   0  0  0  0  0  0  0  0  0  0  0  0
   -2.0810   14.9870    1.3850 N   0  0  0  0  0  0  0  0  0  0  0  0
   -4.8620   15.9930   -0.9640 C   0  0  0  0  0  0  0  0  0  0  0  0
   -6.1050   13.7280   -1.4620 C   0  0  0  0  0  0  0  0  0  0  0  0
   -7.6740   13.9360    0.1340 C   0  0  0  0  0  0  0  0  0  0  0  0
   -7.4910   14.6670    2.4200 C   0  0  0  0  0  0  0  0  0  0  0  0
   -3.9130   14.1620   -1.2120 N   0  0  0  0  0  0  0  0  0  0  0  0
   -1.0750   15.1860    0.5300 C   0  0  0  0  0  0  0  0  0  0  0  0
   -2.3650   15.8800   -1.1830 C   0  0  0  0  0  0  0  0  0  0  0  0
    0.2500   14.8820    1.0100 C   0  0  0  0  0  0  0  0  0  0  0  0
   -7.4170   13.6160   -1.0940 N   0  0  0  0  0  0  0  0  0  0  0  0
   -9.0400   13.8650    0.7310 C   0  0  0  0  0  0  0  0  0  0  0  0
   -8.6950   13.7590    2.2150 C   0  0  0  0  0  0  0  0  0  0  0  0
   -5.5430   13.4510   -2.6250 N   0  0  0  0  0  0  0  0  0  0  0  0
   -4.2300   13.7280   -2.4210 C   0  0  0  0  0  0  0  0  0  0  0  0
   -1.1440   15.6240   -0.7330 N   0  0  0  0  0  0  0  0  0  0  0  0
  1  2  1  0
  2  3  2  0
  1  4  1  0
  2  5  1  0
  4  6  2  0
  4  7  1  0
  6  8  1  0
  5  9  1  0
  3 10  1  0
  3 11  1  0
  5 12  1  0
  7 13  2  0
  6 14  1  0
 13 15  1  0
  9 16  1  0
 10 16  2  0
 10 17  1  0
 11 18  1  0
 17 18  1  0
  9 19  2  0
 12 20  2  0
 19 20  1  0
 13 21  1  0
 14 21  2  0
M  END
