mac-x0138-mac-x0142
     RDKit          3D

 19 22  0  0  0  0  0  0  0  0999 V2000
   -1.7900   15.6620   -4.0780 C   0  0  0  0  0  0  0  0  0  0  0  0
   -2.5480   15.8280   -2.8600 N   0  0  0  0  0  0  0  0  0  0  0  0
   -3.8410   15.1610   -2.8950 C   0  0  0  0  0  0  0  0  0  0  0  0
   -1.9910   15.3980   -1.5860 C   0  0  1  0  0  0  0  0  0  0  0  0
   -4.3650   15.3750   -1.5580 N   0  0  0  0  0  0  0  0  0  0  0  0
   -3.2020   14.8860   -0.8110 C   0  0  2  0  0  0  0  0  0  0  0  0
   -0.8180   14.4230   -1.3510 C   0  0  1  0  0  0  0  0  0  0  0  0
   -2.9990   15.3380    0.6210 C   0  0  1  0  0  0  0  0  0  0  0  0
   -0.6800   14.5910    0.2870 C   0  0  2  0  0  0  0  0  0  0  0  0
   -1.3640   13.0570   -1.8890 C   0  0  0  0  0  0  0  0  0  0  0  0
    0.4560   14.7910   -2.2250 C   0  0  0  0  0  0  0  0  0  0  0  0
   -4.1850   15.1380    1.4380 N   0  0  0  0  0  0  0  0  0  0  0  0
    0.0770   13.5970    0.9670 N   0  0  0  0  0  0  0  0  0  0  0  0
   -1.9010   14.5620    1.1400 N   0  0  0  0  0  0  0  0  0  0  0  0
    0.8320   13.7870   -3.3520 C   0  0  0  0  0  0  0  0  0  0  0  0
   -1.5220   12.9190   -3.4210 C   0  0  0  0  0  0  0  0  0  0  0  0
    2.1440   13.9870   -4.0830 C   0  0  0  0  0  0  0  0  0  0  0  0
    2.0070   12.8640   -3.1060 C   0  0  0  0  0  0  0  0  0  0  0  0
   -0.2870   13.2810   -4.2320 C   0  0  0  0  0  0  0  0  0  0  0  0
  1  2  1  0
  2  3  1  0
  4  2  1  6
  3  5  1  0
  4  6  1  0
  6  5  1  6
  4  7  1  0
  6  8  1  0
  7  9  1  0
  7 10  1  1
  7 11  1  0
  8 12  1  1
  9 13  1  1
  8 14  1  0
  9 14  1  0
 15 11  1  0
 10 16  1  0
 15 17  1  0
 15 18  1  0
 17 18  1  0
 15 19  1  0
 16 19  1  0
M  END
