mac-x0271-diamond-x0290_0_A
     RDKit          3D

 24 26  0  0  0  0  0  0  0  0999 V2000
   -3.6810   15.4880   -3.3130 O   0  0  0  0  0  0  0  0  0  0  0  0
   -4.0750   15.4970   -2.0040 C   0  0  0  0  0  0  0  0  0  0  0  0
   -3.1330   15.8670   -1.0450 C   0  0  0  0  0  0  0  0  0  0  0  0
   -5.3630   15.1530   -1.6340 C   0  0  0  0  0  0  0  0  0  0  0  0
   -5.6750   15.1860   -0.2760 C   0  0  0  0  0  0  0  0  0  0  0  0
   -3.4710   15.8990    0.3110 C   0  0  0  0  0  0  0  0  0  0  0  0
   -4.7530   15.5560    0.7090 C   0  0  0  0  0  0  0  0  0  0  0  0
   -6.9640   14.8270    0.1160 O   0  0  0  0  0  0  0  0  0  0  0  0
   -5.1770   15.5880    2.1120 C   0  0  0  0  0  0  0  0  0  0  0  0
   -7.0770   14.3830    1.4270 C   0  0  0  0  0  0  0  0  0  0  0  0
   -7.6570   13.3250    1.7890 N   0  0  0  0  0  0  0  0  0  0  0  0
   -6.3680   15.0580    2.4520 C   0  0  0  0  0  0  0  0  0  0  0  0
   -7.9290   12.6360    0.7260 N   0  0  0  0  0  0  0  0  0  0  0  0
   -6.6140   11.9330    0.5960 C   0  0  0  0  0  0  0  0  0  0  0  0
   -5.4230   12.8420    0.1400 C   0  0  0  0  0  0  0  0  0  0  0  0
   -5.3900   13.1370   -1.0460 O   0  0  0  0  0  0  0  0  0  0  0  0
   -4.4280   13.2540    1.0720 N   0  0  0  0  0  0  0  0  0  0  0  0
   -3.1060   13.6970    0.7410 C   0  0  0  0  0  0  0  0  0  0  0  0
   -2.2400   14.0730    1.7530 N   0  0  0  0  0  0  0  0  0  0  0  0
   -2.6950   13.7420   -0.5880 C   0  0  0  0  0  0  0  0  0  0  0  0
   -0.9920   14.4600    1.3900 C   0  0  0  0  0  0  0  0  0  0  0  0
   -1.3990   14.1640   -0.9200 C   0  0  0  0  0  0  0  0  0  0  0  0
   -0.9530   14.2220   -2.3500 C   0  0  0  0  0  0  0  0  0  0  0  0
   -0.5310   14.5270    0.0970 C   0  0  0  0  0  0  0  0  0  0  0  0
  1  2  1  0
  2  3  2  0
  2  4  1  0
  4  5  2  0
  3  6  1  0
  5  7  1  0
  6  7  2  0
  5  8  1  0
  7  9  1  0
  8 10  1  0
 10 11  2  3
  9 12  2  0
 10 12  1  0
 11 13  1  0
 13 14  1  0
 14 15  1  0
 15 16  2  0
 15 17  1  0
 17 18  1  0
 18 19  2  0
 18 20  1  0
 19 21  1  0
 20 22  2  0
 22 23  1  0
 21 24  2  0
 22 24  1  0
M  END
