mac-x0361-mac-x0206
     RDKit          3D

 18 19  0  0  0  0  0  0  0  0999 V2000
   -7.2250   12.7780   -1.1490 N   0  0  0  0  0  0  0  0  0  0  0  0
   -6.6660   14.1220   -1.1060 C   0  0  2  0  0  0  0  0  0  0  0  0
   -5.3360   14.3010   -1.7880 C   0  0  0  0  0  0  0  0  0  0  0  0
   -6.5320   14.4850    0.3150 C   0  0  0  0  0  0  0  0  0  0  0  0
   -4.1650   13.8320   -1.1560 C   0  0  0  0  0  0  0  0  0  0  0  0
   -5.2260   14.9240   -3.0180 C   0  0  0  0  0  0  0  0  0  0  0  0
   -5.3590   15.0590    0.8430 C   0  0  0  0  0  0  0  0  0  0  0  0
   -7.6270   14.2300    1.1500 C   0  0  0  0  0  0  0  0  0  0  0  0
   -2.9190   14.0070   -1.7560 C   0  0  0  0  0  0  0  0  0  0  0  0
   -3.9830   15.1000   -3.6210 C   0  0  0  0  0  0  0  0  0  0  0  0
   -4.1380   15.3950    0.0550 C   0  0  0  0  0  0  0  0  0  0  0  0
   -7.5740   14.5310    2.4910 C   0  0  0  0  0  0  0  0  0  0  0  0
   -5.3120   15.3500    2.1940 C   0  0  0  0  0  0  0  0  0  0  0  0
   -2.8410   14.6450   -2.9870 C   0  0  0  0  0  0  0  0  0  0  0  0
   -2.9430   15.0730    0.6370 N   0  0  0  0  0  0  0  0  0  0  0  0
   -4.1890   15.9420   -1.0410 O   0  0  0  0  0  0  0  0  0  0  0  0
   -6.4200   15.0870    3.0090 C   0  0  0  0  0  0  0  0  0  0  0  0
   -1.6160   14.8110   -3.5540 O   0  0  0  0  0  0  0  0  0  0  0  0
  2  1  1  1
  2  3  1  0
  2  4  1  0
  3  5  2  0
  3  6  1  0
  4  7  2  0
  4  8  1  0
  5  9  1  0
  6 10  2  0
  7 11  1  0
  8 12  2  0
  7 13  1  0
  9 14  2  0
 10 14  1  0
 11 15  1  0
 11 16  2  0
 12 17  1  0
 13 17  2  0
 14 18  1  0
M  END
