mac-x0159-mac-x0226
     RDKit          3D

 32 36  0  0  0  0  0  0  0  0999 V2000
   -4.4930   14.6940    0.9560 N   0  0  0  0  0  0  0  0  0  0  0  0
   -3.5050   15.2500    0.0600 C   0  0  1  0  0  0  0  0  0  0  0  0
   -2.0240   15.0080    0.4160 C   0  0  2  0  0  0  0  0  0  0  0  0
   -3.8770   14.7590   -1.2480 N   0  0  0  0  0  0  0  0  0  0  0  0
   -2.9650   14.9810   -2.3830 C   0  0  0  0  0  0  0  0  0  0  0  0
   -1.2630   14.4010   -0.7450 C   0  0  1  0  0  0  0  0  0  0  0  0
   -1.5800   14.1360    1.4710 N   0  0  0  0  0  0  0  0  0  0  0  0
   -1.5410   14.9810   -2.0590 N   0  0  0  0  0  0  0  0  0  0  0  0
    0.0720   14.5320   -0.1890 N   0  0  0  0  0  0  0  0  0  0  0  0
   -0.1430   14.1630    1.2230 C   0  0  0  0  0  0  0  0  0  0  0  0
   -0.6060   14.6000   -3.1790 C   0  0  2  0  0  0  0  0  0  0  0  0
    0.7900   14.0460   -2.7330 C   0  0  0  0  0  0  0  0  0  0  0  0
   -0.2960   15.8320   -4.0430 C   0  0  0  0  0  0  0  0  0  0  0  0
    0.7420   12.7750   -2.0360 O   0  0  0  0  0  0  0  0  0  0  0  0
    0.9580   16.4010   -4.1840 C   0  0  0  0  0  0  0  0  0  0  0  0
   -1.3000   16.4880   -4.7680 N   0  0  0  0  0  0  0  0  0  0  0  0
    0.4740   11.6350   -2.7380 C   0  0  0  0  0  0  0  0  0  0  0  0
   -0.7910   17.5170   -5.4190 C   0  0  0  0  0  0  0  0  0  0  0  0
    0.8850   17.7650   -5.2170 S   0  0  0  0  0  0  0  0  0  0  0  0
   -1.5600   18.4480   -6.2900 C   0  0  0  0  0  0  0  0  0  0  0  0
    0.1350   10.5710   -2.2030 O   0  0  0  0  0  0  0  0  0  0  0  0
    0.6420   11.7380   -4.1780 C   0  0  0  0  0  0  0  0  0  0  0  0
    1.4570   12.5680   -4.9810 C   0  0  0  0  0  0  0  0  0  0  0  0
   -0.0230   10.9500   -5.0920 C   0  0  0  0  0  0  0  0  0  0  0  0
    1.3170   12.3130   -6.2850 N   0  0  0  0  0  0  0  0  0  0  0  0
    0.4040   11.3040   -6.3480 N   0  0  0  0  0  0  0  0  0  0  0  0
   -0.0050   10.7310   -7.5850 C   0  0  0  0  0  0  0  0  0  0  0  0
   -1.1640    9.9630   -7.6960 C   0  0  0  0  0  0  0  0  0  0  0  0
    0.7700   10.9320   -8.7220 C   0  0  0  0  0  0  0  0  0  0  0  0
   -1.5200    9.4180   -8.9330 C   0  0  0  0  0  0  0  0  0  0  0  0
    0.4250   10.3970   -9.9510 C   0  0  0  0  0  0  0  0  0  0  0  0
   -0.7280    9.6340  -10.0620 C   0  0  0  0  0  0  0  0  0  0  0  0
  2  1  1  1
  2  3  1  0
  2  4  1  0
  4  5  1  0
  3  6  1  0
  3  7  1  1
  5  8  1  0
  6  8  1  0
  6  9  1  1
  7 10  1  0
  9 10  1  0
  8 11  1  0
 11 12  1  1
 11 13  1  0
 12 14  1  0
 13 15  2  0
 13 16  1  0
 14 17  1  0
 16 18  2  0
 15 19  1  0
 18 19  1  0
 18 20  1  0
 17 21  2  0
 17 22  1  0
 22 23  1  0
 22 24  2  0
 23 25  2  0
 24 26  1  0
 25 26  1  0
 26 27  1  0
 27 28  2  0
 27 29  1  0
 28 30  1  0
 29 31  2  0
 30 32  2  0
 31 32  1  0
M  END
