mac-x0179-mac-x0441
     RDKit          3D

 19 20  0  0  0  0  0  0  0  0999 V2000
    1.2920   13.1710   -3.0160 O   0  0  0  0  0  0  0  0  0  0  0  0
    0.8560   12.3090   -3.9580 C   0  0  0  0  0  0  0  0  0  0  0  0
    0.5410   11.1690   -3.6370 O   0  0  0  0  0  0  0  0  0  0  0  0
    0.8090   12.8390   -5.4220 C   0  0  0  0  0  0  0  0  0  0  0  0
    0.0010   12.0780   -6.4070 N   0  0  0  0  0  0  0  0  0  0  0  0
    0.6910   11.1560   -7.3870 C   0  0  2  0  0  0  0  0  0  0  0  0
   -1.1310   11.4760   -5.8920 C   0  0  0  0  0  0  0  0  0  0  0  0
    2.0040   11.1090   -6.9080 O   0  0  0  0  0  0  0  0  0  0  0  0
   -1.9420   12.0190   -5.1720 O   0  0  0  0  0  0  0  0  0  0  0  0
    0.6100   11.0440   -8.9890 C   0  0  0  0  0  0  0  0  0  0  0  0
   -0.0950    9.9090   -7.1930 C   0  0  0  0  0  0  0  0  0  0  0  0
   -1.1700   10.1020   -6.3430 C   0  0  0  0  0  0  0  0  0  0  0  0
    0.6580    9.7240   -9.2890 F   0  0  0  0  0  0  0  0  0  0  0  0
   -0.5050   11.5140   -9.5630 F   0  0  0  0  0  0  0  0  0  0  0  0
    1.6610   11.4270   -9.7280 F   0  0  0  0  0  0  0  0  0  0  0  0
    0.1250    8.6850   -7.7740 C   0  0  0  0  0  0  0  0  0  0  0  0
   -2.0720    9.1050   -6.0400 C   0  0  0  0  0  0  0  0  0  0  0  0
   -0.7660    7.6610   -7.4950 C   0  0  0  0  0  0  0  0  0  0  0  0
   -1.8600    7.8640   -6.6360 C   0  0  0  0  0  0  0  0  0  0  0  0
  1  2  1  0
  2  3  2  0
  2  4  1  0
  4  5  1  0
  5  6  1  0
  5  7  1  0
  6  8  1  6
  7  9  2  0
  6 10  1  0
  6 11  1  0
  7 12  1  0
 11 12  2  0
 10 13  1  0
 10 14  1  0
 10 15  1  0
 11 16  1  0
 12 17  1  0
 16 18  2  0
 17 19  2  0
 18 19  1  0
M  END
