mac-x0441-diamond-x0933_0_A
     RDKit          3D

 27 29  0  0  0  0  0  0  0  0999 V2000
    0.4920   10.4550   -3.4660 O   0  0  0  0  0  0  0  0  0  0  0  0
    0.5540   11.7870   -3.3820 C   0  0  0  0  0  0  0  0  0  0  0  0
    0.6360   12.1880   -2.1770 N   0  0  0  0  0  0  0  0  0  0  0  0
    0.4930   12.5130   -4.7090 C   0  0  0  0  0  0  0  0  0  0  0  0
    0.6170   13.6110   -1.9840 C   0  0  0  0  0  0  0  0  0  0  0  0
    0.2230   11.6520   -5.8480 N   0  0  0  0  0  0  0  0  0  0  0  0
   -0.8050   13.9300   -2.4240 C   0  0  0  0  0  0  0  0  0  0  0  0
    1.0180   11.6970   -6.9570 N   0  0  0  0  0  0  0  0  0  0  0  0
   -0.7820   10.7460   -5.9690 C   0  0  0  0  0  0  0  0  0  0  0  0
   -1.5850   14.8160   -1.4740 C   0  0  0  0  0  0  0  0  0  0  0  0
    0.4810   10.7750   -7.8020 C   0  0  0  0  0  0  0  0  0  0  0  0
   -0.6400   10.1680   -7.2050 C   0  0  0  0  0  0  0  0  0  0  0  0
   -1.8400   10.4180   -4.9820 C   0  0  0  0  0  0  0  0  0  0  0  0
    0.9480   10.3920   -9.1900 C   0  0  0  0  0  0  0  0  0  0  0  0
   -1.5380    9.1130   -7.7310 C   0  0  0  0  0  0  0  0  0  0  0  0
   -2.9750    9.6620   -5.6990 C   0  0  0  0  0  0  0  0  0  0  0  0
   -2.6990   14.2010   -0.6090 C   0  0  2  0  0  0  0  0  0  0  0  0
    1.6530    9.2320   -9.2230 F   0  0  0  0  0  0  0  0  0  0  0  0
   -0.1130   10.2010  -10.0100 F   0  0  0  0  0  0  0  0  0  0  0  0
    1.6700   11.3200   -9.8460 F   0  0  0  0  0  0  0  0  0  0  0  0
   -2.4330    8.5480   -6.6150 C   0  0  0  0  0  0  0  0  0  0  0  0
   -4.0700   14.4990   -1.2260 C   0  0  0  0  0  0  0  0  0  0  0  0
   -2.6420   14.7300    0.8550 C   0  0  0  0  0  0  0  0  0  0  0  0
   -5.1270   14.2400   -0.2830 N   0  0  0  0  0  0  0  0  0  0  0  0
   -3.8910   15.1280    1.5270 N   0  0  0  0  0  0  0  0  0  0  0  0
   -5.0750   15.1790    0.7540 C   0  0  2  0  0  0  0  0  0  0  0  0
   -6.0860   14.7320    1.6540 N   0  0  0  0  0  0  0  0  0  0  0  0
  1  2  1  0
  2  3  2  3
  2  4  1  0
  3  5  1  0
  4  6  1  0
  5  7  1  0
  6  8  1  0
  6  9  1  0
  7 10  1  0
  8 11  2  0
  9 12  2  0
 11 12  1  0
  9 13  1  0
 11 14  1  0
 12 15  1  0
 13 16  1  0
 17 10  1  6
 14 18  1  0
 14 19  1  0
 14 20  1  0
 15 21  1  0
 16 21  1  0
 17 22  1  0
 17 23  1  0
 22 24  1  0
 23 25  1  0
 24 26  1  0
 25 26  1  0
 26 27  1  1
M  END
