mac-x0412-mac-x0381
     RDKit          3D

 25 28  0  0  0  0  0  0  0  0999 V2000
   -7.7900   13.9440   -0.8090 O   0  0  0  0  0  0  0  0  0  0  0  0
   -7.0540   14.6110   -0.1010 C   0  0  0  0  0  0  0  0  0  0  0  0
   -7.3280   14.7780    1.2380 N   0  0  0  0  0  0  0  0  0  0  0  0
   -5.8100   15.3390   -0.6610 C   0  0  1  0  0  0  0  0  0  0  0  0
   -4.6720   15.2360    0.3300 C   0  0  0  0  0  0  0  0  0  0  0  0
   -6.3640   15.0260    2.0590 C   0  0  0  0  0  0  0  0  0  0  0  0
   -5.4240   14.9790   -2.0710 C   0  0  0  0  0  0  0  0  0  0  0  0
   -6.7830   15.2850    3.5180 C   0  0  0  0  0  0  0  0  0  0  0  0
   -4.9160   15.1150    1.6360 C   0  0  0  0  0  0  0  0  0  0  0  0
   -3.3220   15.2680   -0.1870 C   0  0  0  0  0  0  0  0  0  0  0  0
   -4.1440   14.8720   -2.4480 C   0  0  0  0  0  0  0  0  0  0  0  0
   -7.3770   14.1220    4.0670 N   0  0  0  0  0  0  0  0  0  0  0  0
   -3.0810   15.0920   -1.4990 C   0  0  0  0  0  0  0  0  0  0  0  0
   -8.6230   13.9230    4.0390 C   0  0  0  0  0  0  0  0  0  0  0  0
   -8.9780   12.7390    4.5960 N   0  0  0  0  0  0  0  0  0  0  0  0
   -9.7370   14.7530    3.4960 C   0  0  0  0  0  0  0  0  0  0  0  0
   -9.6290   15.5730    2.3560 C   0  0  0  0  0  0  0  0  0  0  0  0
  -10.9380   14.6630    4.1900 C   0  0  0  0  0  0  0  0  0  0  0  0
  -10.7590   16.2970    1.9050 C   0  0  0  0  0  0  0  0  0  0  0  0
  -12.0480   15.3720    3.7540 C   0  0  0  0  0  0  0  0  0  0  0  0
  -11.9780   16.1830    2.6170 C   0  0  0  0  0  0  0  0  0  0  0  0
  -10.7170   17.1260    0.7660 C   0  0  0  0  0  0  0  0  0  0  0  0
  -13.1100   16.8790    2.1790 C   0  0  0  0  0  0  0  0  0  0  0  0
  -11.8600   17.8150    0.3460 C   0  0  0  0  0  0  0  0  0  0  0  0
  -13.0530   17.6910    1.0500 C   0  0  0  0  0  0  0  0  0  0  0  0
  1  2  2  0
  2  3  1  0
  2  4  1  0
  4  5  1  0
  3  6  2  0
  4  7  1  6
  6  8  1  0
  5  9  2  0
  6  9  1  0
  5 10  1  0
  7 11  2  0
  8 12  1  0
 10 13  2  0
 11 13  1  0
 12 14  2  3
 14 15  1  0
 14 16  1  0
 16 17  2  0
 16 18  1  0
 17 19  1  0
 18 20  2  0
 19 21  2  0
 20 21  1  0
 19 22  1  0
 21 23  1  0
 22 24  2  0
 23 25  2  0
 24 25  1  0
M  END
