mac-x0142-mac-x0328
     RDKit          3D

 21 24  0  0  0  0  0  0  0  0999 V2000
   -3.6380   15.5590   -3.7050 O   0  0  0  0  0  0  0  0  0  0  0  0
   -3.3900   14.5520   -2.8480 C   0  0  0  0  0  0  0  0  0  0  0  0
   -3.1660   13.4390   -3.2610 O   0  0  0  0  0  0  0  0  0  0  0  0
   -3.3200   14.8240   -1.4330 C   0  0  0  0  0  0  0  0  0  0  0  0
   -2.0790   14.8080   -0.8150 C   0  0  0  0  0  0  0  0  0  0  0  0
   -4.2390   15.0930   -0.4630 C   0  0  0  0  0  0  0  0  0  0  0  0
   -5.6100   15.2100   -0.6210 O   0  0  0  0  0  0  0  0  0  0  0  0
   -2.4100   14.9850    0.6060 C   0  0  0  0  0  0  0  0  0  0  0  0
   -0.8130   14.6980   -1.2310 C   0  0  0  0  0  0  0  0  0  0  0  0
   -3.6930   15.2080    0.8090 N   0  0  0  0  0  0  0  0  0  0  0  0
   -0.4330   14.5680   -2.5720 N   0  0  0  0  0  0  0  0  0  0  0  0
    0.1260   14.7270   -0.2360 N   0  0  0  0  0  0  0  0  0  0  0  0
   -1.4400   14.9460    1.5540 N   0  0  0  0  0  0  0  0  0  0  0  0
   -1.4400   14.5910   -3.6480 C   0  0  0  0  0  0  0  0  0  0  0  0
    0.9220   14.7970   -3.0570 C   0  0  0  0  0  0  0  0  0  0  0  0
   -0.2410   14.8260    1.0800 C   0  0  0  0  0  0  0  0  0  0  0  0
    1.1820   13.6760   -4.0390 C   0  0  0  0  0  0  0  0  0  0  0  0
   -1.2120   13.5360   -4.7300 C   0  0  0  0  0  0  0  0  0  0  0  0
    2.5700   13.0910   -4.1950 C   0  0  0  0  0  0  0  0  0  0  0  0
    1.5350   12.3590   -3.4010 C   0  0  0  0  0  0  0  0  0  0  0  0
    0.2280   13.6010   -5.2170 C   0  0  0  0  0  0  0  0  0  0  0  0
  1  2  1  0
  2  3  2  0
  2  4  1  0
  4  5  1  0
  4  6  2  0
  6  7  1  0
  5  8  1  0
  5  9  2  0
  6 10  1  0
  8 10  2  0
  9 11  1  0
  9 12  1  0
  8 13  1  0
 11 14  1  0
 11 15  1  0
 12 16  1  0
 13 16  2  0
 17 15  1  0
 14 18  1  0
 17 19  1  0
 17 20  1  0
 19 20  1  0
 17 21  1  0
 18 21  1  0
M  END
