mac-x0387-mac-x0354
     RDKit          3D

 28 31  0  0  0  0  0  0  0  0999 V2000
   -4.0350   15.0040    1.5910 N   0  0  0  0  0  0  0  0  0  0  0  0
   -2.7340   14.8290    1.1100 C   0  0  0  0  0  0  0  0  0  0  0  0
   -1.7580   14.6360    2.0160 N   0  0  0  0  0  0  0  0  0  0  0  0
   -2.4910   14.8680   -0.2660 C   0  0  0  0  0  0  0  0  0  0  0  0
   -1.1580   14.7250   -0.6670 C   0  0  0  0  0  0  0  0  0  0  0  0
   -0.4990   14.4930    1.5890 C   0  0  0  0  0  0  0  0  0  0  0  0
   -3.4830   15.0450   -1.2580 C   0  0  0  0  0  0  0  0  0  0  0  0
   -0.1590   14.5390    0.2810 C   0  0  0  0  0  0  0  0  0  0  0  0
   -0.8210   14.7740   -2.0020 C   0  0  0  0  0  0  0  0  0  0  0  0
   -3.1500   15.0750   -2.6160 C   0  0  0  0  0  0  0  0  0  0  0  0
    0.6420   14.6580   -2.2970 C   0  0  0  0  0  0  0  0  0  0  0  0
   -1.8110   14.9410   -2.9940 C   0  0  0  0  0  0  0  0  0  0  0  0
    1.2190   13.3190   -1.8820 C   0  0  0  0  0  0  0  0  0  0  0  0
    1.2270   12.8120   -3.1930 N   0  0  0  0  0  0  0  0  0  0  0  0
    0.6600   11.7660   -3.5620 C   0  0  0  0  0  0  0  0  0  0  0  0
   -0.0160   10.8500   -2.8220 O   0  0  0  0  0  0  0  0  0  0  0  0
    0.8270   11.7160   -4.9600 C   0  0  0  0  0  0  0  0  0  0  0  0
    1.8140   12.4880   -5.5850 C   0  0  0  0  0  0  0  0  0  0  0  0
    0.2070   11.0360   -5.9870 C   0  0  0  0  0  0  0  0  0  0  0  0
    0.8550   11.4360   -7.1150 N   0  0  0  0  0  0  0  0  0  0  0  0
    1.8270   12.3130   -6.8740 N   0  0  0  0  0  0  0  0  0  0  0  0
   -0.8690   10.0930   -6.0130 C   0  0  0  0  0  0  0  0  0  0  0  0
    0.5870   11.0070   -8.4710 C   0  0  0  0  0  0  0  0  0  0  0  0
   -0.6590    8.8290   -6.5660 C   0  0  0  0  0  0  0  0  0  0  0  0
   -2.1100   10.4410   -5.4890 C   0  0  0  0  0  0  0  0  0  0  0  0
   -1.6990    7.9100   -6.5940 C   0  0  0  0  0  0  0  0  0  0  0  0
   -3.1490    9.5210   -5.5160 C   0  0  0  0  0  0  0  0  0  0  0  0
   -2.9420    8.2570   -6.0690 C   0  0  0  0  0  0  0  0  0  0  0  0
  1  2  1  0
  2  3  2  0
  2  4  1  0
  4  5  2  0
  3  6  1  0
  4  7  1  0
  5  8  1  0
  6  8  2  0
  5  9  1  0
  7 10  2  0
  9 11  1  0
  9 12  2  0
 10 12  1  0
 11 13  1  0
 13 14  1  0
 14 15  2  3
 15 16  1  0
 15 17  1  0
 17 18  1  0
 17 19  2  0
 19 20  1  0
 18 21  2  0
 20 21  1  0
 19 22  1  0
 20 23  1  0
 22 24  2  0
 22 25  1  0
 24 26  1  0
 25 27  2  0
 26 28  2  0
 27 28  1  0
M  END
