mac-x0404-mac-x0576
     RDKit          3D

 28 31  0  0  0  0  0  0  0  0999 V2000
    0.9600   12.4360   -1.6610 O   0  0  0  0  0  0  0  0  0  0  0  0
    0.7330   12.1110   -2.9650 C   0  0  0  0  0  0  0  0  0  0  0  0
    0.3600   10.9820   -3.2370 O   0  0  0  0  0  0  0  0  0  0  0  0
    0.9960   13.2760   -3.9210 C   0  0  0  0  0  0  0  0  0  0  0  0
    0.6390   14.5300   -3.3090 O   0  0  0  0  0  0  0  0  0  0  0  0
   -0.4410   15.1690   -3.9320 C   0  0  0  0  0  0  0  0  0  0  0  0
   -0.2190   16.2350   -4.8460 C   0  0  0  0  0  0  0  0  0  0  0  0
   -1.7930   14.8670   -3.6750 C   0  0  0  0  0  0  0  0  0  0  0  0
   -2.4340   14.0560   -2.7860 N   0  0  0  0  0  0  0  0  0  0  0  0
   -1.3180   16.8730   -5.4810 C   0  0  0  0  0  0  0  0  0  0  0  0
   -2.8120   15.4970   -4.3520 C   0  0  0  0  0  0  0  0  0  0  0  0
    1.0310   16.7270   -5.1540 C   0  0  0  0  0  0  0  0  0  0  0  0
   -2.5920   16.4710   -5.2500 C   0  0  0  0  0  0  0  0  0  0  0  0
   -1.1560   17.9370   -6.3540 C   0  0  0  0  0  0  0  0  0  0  0  0
    1.1870   17.8100   -6.0240 C   0  0  0  0  0  0  0  0  0  0  0  0
   -2.1370   14.1630   -1.5200 C   0  0  0  0  0  0  0  0  0  0  0  0
    0.0990   18.4140   -6.6220 C   0  0  0  0  0  0  0  0  0  0  0  0
   -1.1010   14.8220   -0.8880 N   0  0  0  0  0  0  0  0  0  0  0  0
   -3.1850   13.5440   -0.5940 C   0  0  1  0  0  0  0  0  0  0  0  0
   -0.8220   14.5040    0.4590 C   0  0  1  0  0  0  0  0  0  0  0  0
   -3.0720   14.0630    0.9020 C   0  0  1  0  0  0  0  0  0  0  0  0
   -4.5150   13.7950   -1.2230 N   0  0  0  0  0  0  0  0  0  0  0  0
    0.2400   15.2200    1.0620 N   0  0  0  0  0  0  0  0  0  0  0  0
   -1.8930   14.7730    1.3530 N   0  0  0  0  0  0  0  0  0  0  0  0
   -4.1510   14.8670    1.4210 N   0  0  0  0  0  0  0  0  0  0  0  0
   -5.1020   15.0740   -0.7910 C   0  0  0  0  0  0  0  0  0  0  0  0
   -5.2990   14.9830    0.7010 C   0  0  0  0  0  0  0  0  0  0  0  0
   -6.3940   14.9790    1.2550 O   0  0  0  0  0  0  0  0  0  0  0  0
  1  2  1  0
  2  3  2  0
  2  4  1  0
  4  5  1  0
  5  6  1  0
  6  7  2  0
  6  8  1  0
  8  9  1  0
  7 10  1  0
  8 11  2  0
  7 12  1  0
 10 13  2  0
 11 13  1  0
 10 14  1  0
 12 15  2  0
  9 16  2  3
 14 17  2  0
 15 17  1  0
 16 18  1  0
 16 19  1  0
 18 20  1  0
 19 21  1  0
 19 22  1  6
 20 23  1  1
 20 24  1  0
 21 24  1  6
 21 25  1  0
 22 26  1  0
 25 27  1  0
 26 27  1  0
 27 28  2  0
M  END
