mac-x0453-mac-x0204
     RDKit          3D

 20 21  0  0  0  0  0  0  0  0999 V2000
   -7.0360   13.7810    2.4630 N   0  0  0  0  0  0  0  0  0  0  0  0
   -6.2690   13.6250    1.2270 C   0  0  0  0  0  0  0  0  0  0  0  0
   -5.5840   14.9240    0.8060 C   0  0  0  0  0  0  0  0  0  0  0  0
   -4.3640   14.7030    0.0180 C   0  0  0  0  0  0  0  0  0  0  0  0
   -3.1800   14.1740    0.4380 C   0  0  0  0  0  0  0  0  0  0  0  0
   -4.3160   15.0270   -1.3170 N   0  0  0  0  0  0  0  0  0  0  0  0
   -2.3880   14.1620   -0.6560 N   0  0  0  0  0  0  0  0  0  0  0  0
   -3.1070   14.6920   -1.7010 C   0  0  0  0  0  0  0  0  0  0  0  0
   -1.0390   13.6550   -0.6500 C   0  0  0  0  0  0  0  0  0  0  0  0
   -0.0070   14.5470   -1.3130 C   0  0  0  0  0  0  0  0  0  0  0  0
    0.3710   14.1420   -2.7380 C   0  0  0  0  0  0  0  0  0  0  0  0
    1.0370   12.9040   -2.7230 O   0  0  0  0  0  0  0  0  0  0  0  0
    1.3390   15.0900   -3.1450 O   0  0  0  0  0  0  0  0  0  0  0  0
   -0.7800   14.1270   -3.7400 C   0  0  0  0  0  0  0  0  0  0  0  0
   -1.2320   15.3050   -4.3630 C   0  0  0  0  0  0  0  0  0  0  0  0
   -1.4420   12.9470   -4.0960 C   0  0  0  0  0  0  0  0  0  0  0  0
   -2.2840   15.2560   -5.2740 C   0  0  0  0  0  0  0  0  0  0  0  0
   -2.4700   12.8740   -4.9860 N   0  0  0  0  0  0  0  0  0  0  0  0
   -2.6850   16.4250   -5.8530 O   0  0  0  0  0  0  0  0  0  0  0  0
   -2.8680   14.0320   -5.5550 C   0  0  0  0  0  0  0  0  0  0  0  0
  1  2  1  0
  2  3  1  0
  3  4  1  0
  4  5  2  0
  4  6  1  0
  5  7  1  0
  6  8  2  0
  7  8  1  0
  7  9  1  0
  9 10  1  0
 10 11  1  0
 11 12  1  0
 11 13  1  0
 11 14  1  0
 14 15  2  0
 14 16  1  0
 15 17  1  0
 16 18  2  0
 17 19  1  0
 17 20  2  0
 18 20  1  0
M  END
