mac-x0204-mac-x0564
     RDKit          3D

 17 19  0  0  0  0  0  0  0  0999 V2000
    0.6740   13.3670   -3.2670 O   0  0  0  0  0  0  0  0  0  0  0  0
   -0.2580   14.3320   -3.1670 C   0  0  0  0  0  0  0  0  0  0  0  0
    0.1160   15.4890   -3.2340 O   0  0  0  0  0  0  0  0  0  0  0  0
   -1.6810   13.7930   -2.9390 C   0  0  1  0  0  0  0  0  0  0  0  0
   -2.9670   14.7070   -3.0230 C   0  0  1  0  0  0  0  0  0  0  0  0
   -1.8290   12.6780   -3.9660 C   0  0  0  0  0  0  0  0  0  0  0  0
   -1.6030   13.5070   -1.4370 C   0  0  0  0  0  0  0  0  0  0  0  0
   -2.8920   15.5770   -4.3380 C   0  0  1  0  0  0  0  0  0  0  0  0
   -2.5880   13.1520   -5.1440 N   0  0  0  0  0  0  0  0  0  0  0  0
   -4.4000   14.1780   -3.2440 C   0  0  0  0  0  0  0  0  0  0  0  0
   -3.1270   14.9900   -1.4960 C   0  0  1  0  0  0  0  0  0  0  0  0
   -1.9040   14.7830   -0.8340 O   0  0  0  0  0  0  0  0  0  0  0  0
   -2.2180   16.8440   -4.3790 O   0  0  0  0  0  0  0  0  0  0  0  0
   -2.3660   14.5990   -5.4290 C   0  0  0  0  0  0  0  0  0  0  0  0
   -5.4870   14.6300   -2.5130 C   0  0  0  0  0  0  0  0  0  0  0  0
   -4.2010   15.8090   -0.9080 C   0  0  0  0  0  0  0  0  0  0  0  0
   -5.3930   15.6160   -1.4460 C   0  0  0  0  0  0  0  0  0  0  0  0
  1  2  1  0
  2  3  2  0
  4  2  1  6
  4  5  1  0
  4  6  1  0
  4  7  1  0
  5  8  1  0
  6  9  1  0
  5 10  1  6
  5 11  1  0
  7 12  1  0
 11 12  1  0
  8 13  1  1
  8 14  1  0
  9 14  1  0
 10 15  2  0
 11 16  1  6
 15 17  1  0
 16 17  2  0
M  END
