mac-x0565-mac-x0321
     RDKit          3D

 15 16  0  0  0  0  0  0  0  0999 V2000
   -4.9720   15.0060    0.7270 O   0  0  0  0  0  0  0  0  0  0  0  0
   -5.5660   14.7830   -0.4550 C   0  0  0  0  0  0  0  0  0  0  0  0
   -6.7770   14.6140   -0.5370 O   0  0  0  0  0  0  0  0  0  0  0  0
   -4.6340   14.7900   -1.6320 C   0  0  0  0  0  0  0  0  0  0  0  0
   -3.2110   14.6350   -1.7010 C   0  0  0  0  0  0  0  0  0  0  0  0
   -5.2790   14.9720   -2.8800 C   0  0  0  0  0  0  0  0  0  0  0  0
   -2.1300   14.4010   -0.8030 C   0  0  0  0  0  0  0  0  0  0  0  0
   -2.5710   14.6900   -2.8630 C   0  0  0  0  0  0  0  0  0  0  0  0
   -4.5470   15.0050   -4.0860 C   0  0  0  0  0  0  0  0  0  0  0  0
   -2.0630   15.1520    0.2740 O   0  0  0  0  0  0  0  0  0  0  0  0
   -1.2890   13.5760   -1.0970 O   0  0  0  0  0  0  0  0  0  0  0  0
   -3.1880   14.8710   -4.0330 C   0  0  0  0  0  0  0  0  0  0  0  0
   -1.2210   14.5650   -2.9790 O   0  0  0  0  0  0  0  0  0  0  0  0
   -2.2980   14.8940   -5.0600 O   0  0  0  0  0  0  0  0  0  0  0  0
   -1.0680   15.0360   -4.3170 C   0  0  0  0  0  0  0  0  0  0  0  0
  1  2  1  0
  2  3  2  0
  2  4  1  0
  4  5  2  0
  4  6  1  0
  5  7  1  0
  5  8  1  0
  6  9  2  0
  7 10  1  0
  7 11  2  0
  8 12  2  0
  9 12  1  0
  8 13  1  0
 12 14  1  0
 13 15  1  0
 14 15  1  0
M  END
