mac-x0347-diamond-x0766_0_A
     RDKit          3D

 20 22  0  0  0  0  0  0  0  0999 V2000
    1.4280   13.8480   -2.6730 O   0  0  0  0  0  0  0  0  0  0  0  0
    0.3700   13.0730   -2.1350 C   0  0  0  0  0  0  0  0  0  0  0  0
    0.5500   13.0960   -0.7600 O   0  0  0  0  0  0  0  0  0  0  0  0
    0.5200   11.7460   -2.5700 O   0  0  0  0  0  0  0  0  0  0  0  0
   -1.0010   13.6460   -2.5380 C   0  0  1  0  0  0  0  0  0  0  0  0
   -1.6670   14.3930   -1.3710 C   0  0  0  0  0  0  0  0  0  0  0  0
   -1.0010   14.4900   -3.8330 C   0  0  0  0  0  0  0  0  0  0  0  0
   -3.0500   14.9570   -1.7700 C   0  0  1  0  0  0  0  0  0  0  0  0
   -2.3810   15.0290   -4.1440 N   0  0  0  0  0  0  0  0  0  0  0  0
   -0.4900   13.5860   -4.9910 C   0  0  0  0  0  0  0  0  0  0  0  0
    0.0330   15.6600   -3.8560 C   0  0  0  0  0  0  0  0  0  0  0  0
   -3.4440   14.5900   -3.2110 C   0  0  0  0  0  0  0  0  0  0  0  0
   -4.0700   14.7590   -0.6580 C   0  0  0  0  0  0  0  0  0  0  0  0
    1.0330   13.7370   -5.0200 C   0  0  0  0  0  0  0  0  0  0  0  0
    1.2760   15.1890   -4.6240 C   0  0  0  0  0  0  0  0  0  0  0  0
   -3.7760   15.3270    0.5920 C   0  0  0  0  0  0  0  0  0  0  0  0
   -5.2710   14.0510   -0.8050 C   0  0  0  0  0  0  0  0  0  0  0  0
   -4.6520   15.1960    1.6610 C   0  0  0  0  0  0  0  0  0  0  0  0
   -6.1510   13.9190    0.2750 C   0  0  0  0  0  0  0  0  0  0  0  0
   -5.8390   14.4900    1.5040 C   0  0  0  0  0  0  0  0  0  0  0  0
  2  1  1  0
  2  3  1  0
  2  4  1  0
  5  2  1  1
  5  6  1  0
  5  7  1  0
  6  8  1  0
  7  9  1  0
  7 10  1  0
  7 11  1  0
  8 12  1  0
  9 12  1  0
  8 13  1  1
 10 14  1  0
 11 15  1  0
 14 15  1  0
 13 16  2  0
 13 17  1  0
 16 18  1  0
 17 19  2  0
 18 20  2  0
 19 20  1  0
M  END
