mac-x0206-mac-x0337
     RDKit          3D

 18 19  0  0  0  0  0  0  0  0999 V2000
   -2.7810   14.6030   -0.2860 N   0  0  0  0  0  0  0  0  0  0  0  0
   -4.2910   14.7940   -0.9000 S   0  0  0  0  0  0  0  0  0  0  0  0
   -4.1530   16.0800   -0.6380 O   0  0  0  0  0  0  0  0  0  0  0  0
   -4.4810   15.1770   -2.4400 N   0  0  0  0  0  0  0  0  0  0  0  0
   -5.6510   14.7950    0.1150 C   0  0  0  0  0  0  0  0  0  0  0  0
   -4.6260   13.1830   -1.2520 C   0  0  0  0  0  0  0  0  0  0  0  0
   -6.8810   14.7730   -0.4160 C   0  0  0  0  0  0  0  0  0  0  0  0
   -5.4890   14.8100    1.4810 C   0  0  0  0  0  0  0  0  0  0  0  0
   -3.8340   12.4040   -2.1230 C   0  0  0  0  0  0  0  0  0  0  0  0
   -5.6930   12.4640   -0.7520 C   0  0  0  0  0  0  0  0  0  0  0  0
   -7.1140   14.7630   -1.7750 O   0  0  0  0  0  0  0  0  0  0  0  0
   -8.0100   14.7560    0.4080 C   0  0  0  0  0  0  0  0  0  0  0  0
   -6.6090   14.7980    2.2790 C   0  0  0  0  0  0  0  0  0  0  0  0
   -4.0890   11.0970   -2.4490 C   0  0  0  0  0  0  0  0  0  0  0  0
   -5.9820   11.1940   -1.0410 C   0  0  0  0  0  0  0  0  0  0  0  0
   -7.8710   14.7670    1.7590 C   0  0  0  0  0  0  0  0  0  0  0  0
   -5.1860   10.5070   -1.8930 C   0  0  0  0  0  0  0  0  0  0  0  0
   -5.5540    9.0800   -2.2020 C   0  0  0  0  0  0  0  0  0  0  0  0
  1  2  1  0
  2  3  2  0
  2  4  1  0
  2  5  1  0
  2  6  1  0
  5  7  2  0
  5  8  1  0
  6  9  2  0
  6 10  1  0
  7 11  1  0
  7 12  1  0
  8 13  2  0
  9 14  1  0
 10 15  2  0
 12 16  2  0
 13 16  1  0
 14 17  2  0
 15 17  1  0
 17 18  1  0
M  END
