mac-x0204-mac-x0555
     RDKit          3D

 22 24  0  0  0  0  0  0  0  0999 V2000
    0.3220   12.9910   -2.1750 O   0  0  0  0  0  0  0  0  0  0  0  0
   -0.1070   14.1450   -2.7090 C   0  0  0  0  0  0  0  0  0  0  0  0
    0.2910   15.2050   -2.2640 O   0  0  0  0  0  0  0  0  0  0  0  0
   -1.0340   13.9760   -3.8540 C   0  0  0  0  0  0  0  0  0  0  0  0
   -2.0850   14.8680   -4.1700 C   0  0  0  0  0  0  0  0  0  0  0  0
   -0.8660   12.8770   -4.6870 C   0  0  0  0  0  0  0  0  0  0  0  0
   -2.4500   16.0670   -3.3690 C   0  0  0  0  0  0  0  0  0  0  0  0
   -2.8470   14.6260   -5.2990 C   0  0  0  0  0  0  0  0  0  0  0  0
   -1.6330   12.6190   -5.7750 N   0  0  0  0  0  0  0  0  0  0  0  0
   -3.8340   15.5070   -5.6340 O   0  0  0  0  0  0  0  0  0  0  0  0
   -2.6010   13.5080   -6.0630 C   0  0  0  0  0  0  0  0  0  0  0  0
   -3.3590   15.7230   -2.1740 C   0  0  0  0  0  0  0  0  0  0  0  0
   -4.7440   15.3290   -2.2350 C   0  0  0  0  0  0  0  0  0  0  0  0
   -2.7640   15.8110   -0.9280 C   0  0  0  0  0  0  0  0  0  0  0  0
   -5.4890   15.0450   -1.0670 C   0  0  0  0  0  0  0  0  0  0  0  0
   -3.4740   15.5370    0.2150 C   0  0  0  0  0  0  0  0  0  0  0  0
   -4.8090   15.1640    0.1480 C   0  0  0  0  0  0  0  0  0  0  0  0
   -6.7990   14.6740   -1.0940 N   0  0  0  0  0  0  0  0  0  0  0  0
   -5.4790   14.9030    1.3250 C   0  0  0  0  0  0  0  0  0  0  0  0
   -7.4200   14.4180    0.1030 C   0  0  0  0  0  0  0  0  0  0  0  0
   -6.7980   14.5170    1.3450 C   0  0  0  0  0  0  0  0  0  0  0  0
   -7.3810   14.2660    2.5900 N   0  0  0  0  0  0  0  0  0  0  0  0
  1  2  1  0
  2  3  2  0
  2  4  1  0
  4  5  2  0
  4  6  1  0
  5  7  1  0
  5  8  1  0
  6  9  2  0
  8 10  1  0
  8 11  2  0
  9 11  1  0
  7 12  1  0
 12 13  2  0
 12 14  1  0
 13 15  1  0
 14 16  2  0
 15 17  2  0
 16 17  1  0
 15 18  1  0
 17 19  1  0
 18 20  2  0
 19 21  2  0
 20 21  1  0
 21 22  1  0
M  END
