mac-x0411-diamond-x0689_0_A
     RDKit          3D

 23 24  0  0  0  0  0  0  0  0999 V2000
    0.7700    8.8680   -7.7300 Cl  0  0  0  0  0  0  0  0  0  0  0  0
   -0.5450    9.5180   -6.8140 C   0  0  0  0  0  0  0  0  0  0  0  0
   -0.4460   10.7360   -6.1050 C   0  0  0  0  0  0  0  0  0  0  0  0
   -1.7280    8.7770   -6.8060 C   0  0  0  0  0  0  0  0  0  0  0  0
    0.7580   11.4240   -6.1460 O   0  0  0  0  0  0  0  0  0  0  0  0
   -1.5830   11.1870   -5.3940 C   0  0  0  0  0  0  0  0  0  0  0  0
   -2.8340    9.2330   -6.1000 C   0  0  0  0  0  0  0  0  0  0  0  0
   -1.6300   12.6550   -4.4910 Cl  0  0  0  0  0  0  0  0  0  0  0  0
    0.8960   12.5750   -5.2970 C   0  0  0  0  0  0  0  0  0  0  0  0
   -2.7610   10.4320   -5.3990 C   0  0  0  0  0  0  0  0  0  0  0  0
    1.1150   12.1860   -3.8330 C   0  0  0  0  0  0  0  0  0  0  0  0
    1.9950   13.0740   -3.2460 O   0  0  0  0  0  0  0  0  0  0  0  0
    0.6070   11.2340   -3.2520 O   0  0  0  0  0  0  0  0  0  0  0  0
    1.4930   13.8630   -2.1430 C   0  0  0  0  0  0  0  0  0  0  0  0
    0.3480   13.0810   -1.5290 C   0  0  0  0  0  0  0  0  0  0  0  0
   -0.5650   13.7350   -0.5320 C   0  0  0  0  0  0  0  0  0  0  0  0
   -1.7370   14.2600   -0.9820 C   0  0  0  0  0  0  0  0  0  0  0  0
   -0.3770   13.8530    0.8440 C   0  0  0  0  0  0  0  0  0  0  0  0
   -2.6480   14.8230   -0.1950 N   0  0  0  0  0  0  0  0  0  0  0  0
   -1.2760   14.4180    1.6830 N   0  0  0  0  0  0  0  0  0  0  0  0
   -2.3890   14.8700    1.1120 C   0  0  0  0  0  0  0  0  0  0  0  0
   -3.3430   15.4160    1.9310 N   0  0  0  0  0  0  0  0  0  0  0  0
   -4.5380   15.6170    1.1690 C   0  0  0  0  0  0  0  0  0  0  0  0
  1  2  1  0
  2  3  2  0
  2  4  1  0
  3  5  1  0
  3  6  1  0
  4  7  2  0
  6  8  1  0
  5  9  1  0
  6 10  2  0
  7 10  1  0
  9 11  1  0
 11 12  1  0
 11 13  2  0
 12 14  1  0
 14 15  1  0
 15 16  1  0
 16 17  2  0
 16 18  1  0
 17 19  1  0
 18 20  2  0
 19 21  2  0
 20 21  1  0
 21 22  1  0
 22 23  1  0
M  END
