mac-x0451-mac-x0441
     RDKit          3D

 30 33  0  0  0  0  0  0  0  0999 V2000
   -6.5240   14.7970    2.5600 N   0  0  0  0  0  0  0  0  0  0  0  0
   -5.6860   14.8270    1.5120 C   0  0  0  0  0  0  0  0  0  0  0  0
   -6.1120   15.0000    0.2950 N   0  0  0  0  0  0  0  0  0  0  0  0
   -3.9820   14.6460    1.6810 S   0  0  0  0  0  0  0  0  0  0  0  0
   -5.0490   14.9970   -0.5800 C   0  0  0  0  0  0  0  0  0  0  0  0
   -3.7950   14.8090   -0.0080 C   0  0  0  0  0  0  0  0  0  0  0  0
   -5.1260   15.1620   -1.9670 C   0  0  0  0  0  0  0  0  0  0  0  0
   -2.6250   14.7730   -0.7770 C   0  0  0  0  0  0  0  0  0  0  0  0
   -3.9620   15.1300   -2.7520 C   0  0  0  0  0  0  0  0  0  0  0  0
   -2.7130   14.9350   -2.1660 C   0  0  0  0  0  0  0  0  0  0  0  0
   -1.4910   14.8790   -2.8080 O   0  0  0  0  0  0  0  0  0  0  0  0
   -1.3590   14.8460   -4.2410 C   0  0  0  0  0  0  0  0  0  0  0  0
   -0.0510   14.1720   -4.7400 C   0  0  0  0  0  0  0  0  0  0  0  0
   -0.0600   12.6290   -4.6030 C   0  0  2  0  0  0  0  0  0  0  0  0
    0.7760   12.1500   -3.4290 C   0  0  0  0  0  0  0  0  0  0  0  0
   -0.0580   11.7820   -5.8190 N   0  0  0  0  0  0  0  0  0  0  0  0
    0.6170   10.8690   -3.0520 O   0  0  0  0  0  0  0  0  0  0  0  0
    1.5520   12.8880   -2.8350 O   0  0  0  0  0  0  0  0  0  0  0  0
    0.7980   11.8860   -6.8970 N   0  0  0  0  0  0  0  0  0  0  0  0
   -0.9480   10.7720   -5.9840 C   0  0  0  0  0  0  0  0  0  0  0  0
    0.3870   10.8830   -7.7480 C   0  0  0  0  0  0  0  0  0  0  0  0
   -0.6920   10.1850   -7.1890 C   0  0  0  0  0  0  0  0  0  0  0  0
   -2.0200   10.3570   -5.0450 C   0  0  0  0  0  0  0  0  0  0  0  0
    0.9200   10.4780   -9.1160 C   0  0  0  0  0  0  0  0  0  0  0  0
   -1.4600    9.0340   -7.7300 C   0  0  0  0  0  0  0  0  0  0  0  0
   -3.0670    9.5410   -5.8160 C   0  0  0  0  0  0  0  0  0  0  0  0
    1.5960    9.3020   -9.0590 F   0  0  0  0  0  0  0  0  0  0  0  0
   -0.1120   10.2400   -9.9640 F   0  0  0  0  0  0  0  0  0  0  0  0
    1.6710   11.3470   -9.8060 F   0  0  0  0  0  0  0  0  0  0  0  0
   -2.4070    8.4430   -6.6700 C   0  0  0  0  0  0  0  0  0  0  0  0
  1  2  1  0
  2  3  2  0
  2  4  1  0
  3  5  1  0
  4  6  1  0
  5  6  2  0
  5  7  1  0
  6  8  1  0
  7  9  2  0
  8 10  2  0
  9 10  1  0
 10 11  1  0
 11 12  1  0
 12 13  1  0
 14 13  1  6
 14 15  1  0
 14 16  1  0
 15 17  1  0
 15 18  2  0
 16 19  1  0
 16 20  1  0
 19 21  2  0
 20 22  2  0
 21 22  1  0
 20 23  1  0
 21 24  1  0
 22 25  1  0
 23 26  1  0
 24 27  1  0
 24 28  1  0
 24 29  1  0
 25 30  1  0
 26 30  1  0
M  END
