mac-x0510-mac-x0284
     RDKit          3D

 21 23  0  0  0  0  0  0  0  0999 V2000
   -4.5140   14.6380   -0.9960 N   0  0  0  0  0  0  0  0  0  0  0  0
   -3.5480   15.3660   -0.5610 C   0  0  0  0  0  0  0  0  0  0  0  0
   -2.6480   15.8950   -1.4650 N   0  0  0  0  0  0  0  0  0  0  0  0
   -4.3610   14.4850   -2.3650 C   0  0  0  0  0  0  0  0  0  0  0  0
   -3.2870   15.6120    0.7440 N   0  0  0  0  0  0  0  0  0  0  0  0
   -3.0820   14.0870   -2.7650 C   0  0  0  0  0  0  0  0  0  0  0  0
   -5.3450   14.6950   -3.3210 C   0  0  0  0  0  0  0  0  0  0  0  0
   -2.0630   15.1250    0.9740 C   0  0  0  0  0  0  0  0  0  0  0  0
   -1.3110   15.8660   -1.2140 C   0  0  0  0  0  0  0  0  0  0  0  0
   -2.7520   13.8960   -4.0970 C   0  0  0  0  0  0  0  0  0  0  0  0
   -5.0340   14.5060   -4.6740 C   0  0  0  0  0  0  0  0  0  0  0  0
   -0.4520   16.3150   -1.9590 O   0  0  0  0  0  0  0  0  0  0  0  0
   -1.3630   13.4770   -4.4330 C   0  0  0  0  0  0  0  0  0  0  0  0
   -1.0880   15.2380    0.0220 C   0  0  0  0  0  0  0  0  0  0  0  0
   -1.6020   14.4850    2.0570 N   0  0  0  0  0  0  0  0  0  0  0  0
   -3.7390   14.1100   -5.0610 C   0  0  0  0  0  0  0  0  0  0  0  0
   -3.4600   13.9380   -6.3840 O   0  0  0  0  0  0  0  0  0  0  0  0
   -0.5550   12.9100   -3.7200 O   0  0  0  0  0  0  0  0  0  0  0  0
   -1.0340   13.8030   -5.6960 O   0  0  0  0  0  0  0  0  0  0  0  0
    0.0100   14.6410    0.5310 N   0  0  0  0  0  0  0  0  0  0  0  0
   -0.3480   14.1950    1.7680 C   0  0  0  0  0  0  0  0  0  0  0  0
  1  2  2  3
  2  3  1  0
  1  4  1  0
  2  5  1  0
  4  6  2  0
  4  7  1  0
  5  8  1  0
  3  9  1  0
  6 10  1  0
  7 11  2  0
  9 12  2  0
 10 13  1  0
  8 14  2  0
  9 14  1  0
  8 15  1  0
 10 16  2  0
 11 16  1  0
 16 17  1  0
 13 18  2  0
 13 19  1  0
 14 20  1  0
 15 21  2  0
 20 21  1  0
M  END
