mac-x0412-mac-x0142
     RDKit          3D

 24 28  0  0  0  0  0  0  0  0999 V2000
   -7.7970   14.7040   -0.5590 O   0  0  0  0  0  0  0  0  0  0  0  0
   -6.7350   14.8110    0.0460 C   0  0  0  0  0  0  0  0  0  0  0  0
   -6.6450   14.5220    1.3810 N   0  0  0  0  0  0  0  0  0  0  0  0
   -5.4350   15.2840   -0.6100 C   0  0  1  0  0  0  0  0  0  0  0  0
   -4.1480   15.0080    0.2250 C   0  0  1  0  0  0  0  0  0  0  0  0
   -5.5820   13.8540    1.8960 C   0  0  0  0  0  0  0  0  0  0  0  0
   -5.2920   14.7970   -2.0400 C   0  0  0  0  0  0  0  0  0  0  0  0
   -4.3550   14.0340    1.3790 C   0  0  0  0  0  0  0  0  0  0  0  0
   -2.7390   15.1230   -0.5680 C   0  0  1  0  0  0  0  0  0  0  0  0
   -4.1320   15.5160   -2.6260 C   0  0  0  0  0  0  0  0  0  0  0  0
   -2.9940   15.6970   -1.9630 C   0  0  0  0  0  0  0  0  0  0  0  0
   -1.9370   15.9210    0.4250 C   0  0  0  0  0  0  0  0  0  0  0  0
   -1.6260   14.0480   -1.0590 C   0  0  1  0  0  0  0  0  0  0  0  0
   -1.1250   14.0330   -2.4750 N   0  0  0  0  0  0  0  0  0  0  0  0
   -0.2890   14.2960   -0.4470 N   0  0  0  0  0  0  0  0  0  0  0  0
   -1.3860   15.0560    1.4490 N   0  0  0  0  0  0  0  0  0  0  0  0
   -2.1200   13.8740   -3.5530 C   0  0  0  0  0  0  0  0  0  0  0  0
    0.1210   14.6330   -2.9420 C   0  0  0  0  0  0  0  0  0  0  0  0
   -0.1750   14.5030    0.9720 C   0  0  0  0  0  0  0  0  0  0  0  0
    0.6880   13.6900   -3.9890 C   0  0  0  0  0  0  0  0  0  0  0  0
   -1.6170   13.0380   -4.7420 C   0  0  0  0  0  0  0  0  0  0  0  0
    2.1920   13.5670   -4.1780 C   0  0  0  0  0  0  0  0  0  0  0  0
    1.4420   12.4920   -3.4540 C   0  0  0  0  0  0  0  0  0  0  0  0
   -0.2120   13.4440   -5.1850 C   0  0  0  0  0  0  0  0  0  0  0  0
  1  2  2  0
  2  3  1  0
  2  4  1  0
  4  5  1  0
  3  6  1  0
  4  7  1  6
  5  8  1  6
  6  8  2  0
  5  9  1  0
  7 10  1  0
  9 11  1  6
 10 11  2  0
  9 12  1  0
  9 13  1  0
 13 14  1  6
 13 15  1  0
 12 16  1  0
 14 17  1  0
 14 18  1  0
 15 19  1  0
 16 19  1  0
 20 18  1  0
 17 21  1  0
 20 22  1  0
 20 23  1  0
 22 23  1  0
 20 24  1  0
 21 24  1  0
M  END
