mac-x0496-mac-x0385
     RDKit          3D

 20 21  0  0  0  0  0  0  0  0999 V2000
   -9.6760   17.6620    4.6770 C   0  0  0  0  0  0  0  0  0  0  0  0
   -9.6320   16.7210    3.5370 C   0  0  0  0  0  0  0  0  0  0  0  0
  -10.3580   16.8540    2.4130 N   0  0  0  0  0  0  0  0  0  0  0  0
   -8.8270   15.6300    3.5490 N   0  0  0  0  0  0  0  0  0  0  0  0
  -10.0010   15.7630    1.6410 O   0  0  0  0  0  0  0  0  0  0  0  0
   -9.0800   15.0850    2.3780 C   0  0  0  0  0  0  0  0  0  0  0  0
   -8.5030   13.8700    1.7820 C   0  0  0  0  0  0  0  0  0  0  0  0
   -7.0840   14.1080    1.5780 N   0  0  0  0  0  0  0  0  0  0  0  0
   -6.6150   14.5990    0.3760 C   0  0  0  0  0  0  0  0  0  0  0  0
   -7.3530   14.9250   -0.5470 O   0  0  0  0  0  0  0  0  0  0  0  0
   -5.1330   14.7070    0.2450 C   0  0  0  0  0  0  0  0  0  0  0  0
   -4.4070   14.7790    1.4260 C   0  0  0  0  0  0  0  0  0  0  0  0
   -4.4550   14.7320   -0.9740 C   0  0  0  0  0  0  0  0  0  0  0  0
   -3.0200   14.8570    1.4110 C   0  0  0  0  0  0  0  0  0  0  0  0
   -3.0440   14.8140   -1.0040 C   0  0  0  0  0  0  0  0  0  0  0  0
   -2.4490   14.8290   -2.3680 C   0  0  0  0  0  0  0  0  0  0  0  0
   -2.2990   14.8710    0.2150 C   0  0  0  0  0  0  0  0  0  0  0  0
   -1.2650   14.7280   -2.6110 O   0  0  0  0  0  0  0  0  0  0  0  0
   -3.3460   14.9720   -3.3580 O   0  0  0  0  0  0  0  0  0  0  0  0
   -0.7790   14.9440    0.3280 C   0  0  0  0  0  0  0  0  0  0  0  0
  1  2  1  0
  2  3  2  0
  2  4  1  0
  3  5  1  0
  4  6  2  0
  5  6  1  0
  6  7  1  0
  7  8  1  0
  8  9  1  0
  9 10  2  0
  9 11  1  0
 11 12  2  0
 11 13  1  0
 12 14  1  0
 13 15  2  0
 15 16  1  0
 14 17  2  0
 15 17  1  0
 16 18  2  0
 16 19  1  0
 17 20  1  0
M  END
