mac-x0451-diamond-x0587_0_A
     RDKit          3D

 17 18  0  0  0  0  0  0  0  0999 V2000
   -6.6270   14.9230    2.7610 N   0  0  0  0  0  0  0  0  0  0  0  0
   -7.9810   15.1670    2.9410 C   0  0  0  0  0  0  0  0  0  0  0  0
   -8.9090   15.1660    2.1450 O   0  0  0  0  0  0  0  0  0  0  0  0
   -5.8890   14.8500    1.6030 C   0  0  0  0  0  0  0  0  0  0  0  0
   -6.3030   14.4890    0.4280 N   0  0  0  0  0  0  0  0  0  0  0  0
   -4.1920   15.2980    1.7850 S   0  0  0  0  0  0  0  0  0  0  0  0
   -5.1040   14.4780   -0.4600 C   0  0  1  0  0  0  0  0  0  0  0  0
   -3.8720   14.2050    0.3960 C   0  0  1  0  0  0  0  0  0  0  0  0
   -4.9730   13.4090   -1.5220 C   0  0  0  0  0  0  0  0  0  0  0  0
   -5.0070   15.5450   -1.4900 C   0  0  0  0  0  0  0  0  0  0  0  0
   -2.6230   14.3120   -0.4260 C   0  0  0  0  0  0  0  0  0  0  0  0
   -3.6490   13.2070   -1.7280 F   0  0  0  0  0  0  0  0  0  0  0  0
   -5.5410   12.2300   -1.2680 F   0  0  0  0  0  0  0  0  0  0  0  0
   -5.4530   13.9030   -2.6900 F   0  0  0  0  0  0  0  0  0  0  0  0
   -3.7970   15.7130   -2.0400 C   0  0  0  0  0  0  0  0  0  0  0  0
   -2.6340   14.9920   -1.5810 C   0  0  0  0  0  0  0  0  0  0  0  0
   -1.5210   15.0290   -2.3440 F   0  0  0  0  0  0  0  0  0  0  0  0
  1  2  1  0
  2  3  2  0
  1  4  1  0
  4  5  2  0
  4  6  1  0
  7  5  1  0
  6  8  1  0
  7  8  1  0
  7  9  1  6
  7 10  1  0
  8 11  1  6
  9 12  1  0
  9 13  1  0
  9 14  1  0
 10 15  2  0
 11 16  2  0
 15 16  1  0
 16 17  1  0
M  END
