mac-x0404-diamond-x0371_0_A
     RDKit          3D

 34 38  0  0  0  0  0  0  0  0999 V2000
    1.1920   13.1250   -2.2330 O   0  0  0  0  0  0  0  0  0  0  0  0
    1.1310   12.2010   -3.2160 C   0  0  0  0  0  0  0  0  0  0  0  0
    0.5490   11.1360   -3.0440 O   0  0  0  0  0  0  0  0  0  0  0  0
    1.8420   12.5830   -4.5270 C   0  0  0  0  0  0  0  0  0  0  0  0
    1.6370   13.9470   -4.9350 O   0  0  0  0  0  0  0  0  0  0  0  0
    0.3600   14.3810   -4.7410 C   0  0  0  0  0  0  0  0  0  0  0  0
    0.0380   15.7290   -4.9640 C   0  0  0  0  0  0  0  0  0  0  0  0
   -0.5740   13.4530   -4.3180 C   0  0  0  0  0  0  0  0  0  0  0  0
   -1.2720   16.1610   -4.7330 C   0  0  0  0  0  0  0  0  0  0  0  0
   -1.8520   13.8670   -4.0760 C   0  0  0  0  0  0  0  0  0  0  0  0
    0.9960   16.6430   -5.4070 C   0  0  0  0  0  0  0  0  0  0  0  0
   -2.2080   15.1900   -4.2580 C   0  0  0  0  0  0  0  0  0  0  0  0
   -1.5490   17.5290   -4.9830 C   0  0  0  0  0  0  0  0  0  0  0  0
    0.7080   17.9790   -5.6400 C   0  0  0  0  0  0  0  0  0  0  0  0
   -3.5990   15.5420   -3.9080 C   0  0  0  0  0  0  0  0  0  0  0  0
   -0.5810   18.4250   -5.4290 C   0  0  0  0  0  0  0  0  0  0  0  0
   -4.0330   15.2710   -2.4510 C   0  0  0  0  0  0  0  0  0  0  0  0
   -3.1320   15.1570   -1.3610 C   0  0  0  0  0  0  0  0  0  0  0  0
   -5.4000   15.1270   -2.1970 C   0  0  0  0  0  0  0  0  0  0  0  0
   -5.8480   14.8660   -0.9040 C   0  0  0  0  0  0  0  0  0  0  0  0
   -3.5710   14.9020   -0.0410 C   0  0  0  0  0  0  0  0  0  0  0  0
   -7.1350   14.6830   -0.4800 N   0  0  0  0  0  0  0  0  0  0  0  0
   -4.9480   14.7560    0.1400 C   0  0  0  0  0  0  0  0  0  0  0  0
   -5.7390   14.4900    1.2370 N   0  0  0  0  0  0  0  0  0  0  0  0
   -7.0510   14.4510    0.8060 C   0  0  0  0  0  0  0  0  0  0  0  0
   -8.1910   14.1710    1.7140 C   0  0  0  0  0  0  0  0  0  0  0  0
   -7.8630   14.5900    3.0490 N   0  0  0  0  0  0  0  0  0  0  0  0
   -8.6510   15.5340    3.6780 C   0  0  0  0  0  0  0  0  0  0  0  0
   -9.3620   16.2960    3.0230 O   0  0  0  0  0  0  0  0  0  0  0  0
   -8.5830   15.5460    5.1170 C   0  0  0  0  0  0  0  0  0  0  0  0
   -8.0140   14.4600    5.7220 O   0  0  0  0  0  0  0  0  0  0  0  0
   -8.9810   16.4480    6.0870 C   0  0  0  0  0  0  0  0  0  0  0  0
   -8.6330   15.8760    7.3390 C   0  0  0  0  0  0  0  0  0  0  0  0
   -8.0450   14.6680    7.0570 C   0  0  0  0  0  0  0  0  0  0  0  0
  1  2  1  0
  2  3  2  0
  2  4  1  0
  4  5  1  0
  5  6  1  0
  6  7  2  0
  6  8  1  0
  7  9  1  0
  8 10  2  0
  7 11  1  0
  9 12  2  0
 10 12  1  0
  9 13  1  0
 11 14  2  0
 12 15  1  0
 13 16  2  0
 14 16  1  0
 15 17  1  0
 17 18  2  0
 17 19  1  0
 19 20  2  0
 18 21  1  0
 20 22  1  0
 20 23  1  0
 21 23  2  0
 23 24  1  0
 22 25  2  0
 24 25  1  0
 25 26  1  0
 26 27  1  0
 27 28  1  0
 28 29  2  0
 28 30  1  0
 30 31  1  0
 30 32  2  0
 32 33  1  0
 31 34  1  0
 33 34  2  0
M  END
