mac-x0472-mac-x1493
     RDKit          3D

 26 29  0  0  0  0  0  0  0  0999 V2000
   -4.3830   14.9890   -3.6360 O   0  0  0  0  0  0  0  0  0  0  0  0
   -3.3110   14.0980   -3.2360 S   0  0  0  0  0  0  0  0  0  0  0  0
   -2.3500   13.7090   -4.2510 O   0  0  0  0  0  0  0  0  0  0  0  0
   -2.4240   14.8740   -1.8060 C   0  0  1  0  0  0  0  0  0  0  0  0
   -4.1150   12.5920   -2.6950 C   0  0  0  0  0  0  0  0  0  0  0  0
   -1.4440   13.8070   -1.6710 O   0  0  0  0  0  0  0  0  0  0  0  0
   -2.5350   14.8380   -0.2960 C   0  0  0  0  0  0  0  0  0  0  0  0
   -3.4650   11.3730   -2.8880 C   0  0  0  0  0  0  0  0  0  0  0  0
   -5.3830   12.6320   -2.0960 C   0  0  0  0  0  0  0  0  0  0  0  0
   -3.8660   14.8330   -1.3260 C   0  0  0  0  0  0  0  0  0  0  0  0
   -1.7800   14.1830    0.5620 N   0  0  0  0  0  0  0  0  0  0  0  0
   -3.8100   15.7560    0.4700 S   0  0  0  0  0  0  0  0  0  0  0  0
   -4.0860   10.1970   -2.4890 C   0  0  0  0  0  0  0  0  0  0  0  0
   -5.9970   11.4480   -1.6960 C   0  0  0  0  0  0  0  0  0  0  0  0
   -4.1680   14.1580   -0.1380 C   0  0  0  0  0  0  0  0  0  0  0  0
   -4.9430   15.4310   -1.9510 C   0  0  0  0  0  0  0  0  0  0  0  0
   -3.2540   15.1480    1.9460 C   0  0  0  0  0  0  0  0  0  0  0  0
   -2.2020   14.3620    1.8560 N   0  0  0  0  0  0  0  0  0  0  0  0
   -5.3500   10.2350   -1.8960 C   0  0  0  0  0  0  0  0  0  0  0  0
   -5.4550   14.1280    0.3740 C   0  0  0  0  0  0  0  0  0  0  0  0
   -6.2170   15.4140   -1.4930 N   0  0  0  0  0  0  0  0  0  0  0  0
   -6.4660   14.7770   -0.3410 C   0  0  0  0  0  0  0  0  0  0  0  0
   -5.7250   13.4730    1.5720 C   0  0  0  0  0  0  0  0  0  0  0  0
   -7.7470   14.7510    0.1750 C   0  0  0  0  0  0  0  0  0  0  0  0
   -7.0130   13.4630    2.0760 C   0  0  0  0  0  0  0  0  0  0  0  0
   -8.0290   14.1020    1.3800 C   0  0  0  0  0  0  0  0  0  0  0  0
  1  2  2  0
  2  3  2  0
  2  4  1  0
  2  5  1  0
  4  6  1  1
  4  7  1  0
  5  8  2  0
  5  9  1  0
  4 10  1  0
  7 11  2  0
  7 12  1  0
  8 13  1  0
  9 14  2  0
 10 15  2  0
 10 16  1  0
 12 17  1  0
 11 18  1  0
 17 18  2  0
 13 19  2  0
 14 19  1  0
 15 20  1  0
 16 21  2  0
 20 22  2  0
 21 22  1  0
 20 23  1  0
 22 24  1  0
 23 25  2  0
 24 26  2  0
 25 26  1  0
M  END
