mac-x0555-mac-x0328
     RDKit          3D

 15 16  0  0  0  0  0  0  0  0999 V2000
   -7.2700   14.3960    3.1850 N   0  0  0  0  0  0  0  0  0  0  0  0
   -6.8280   14.5520    1.8720 C   0  0  0  0  0  0  0  0  0  0  0  0
   -7.7400   14.6790    0.8450 C   0  0  0  0  0  0  0  0  0  0  0  0
   -5.4670   14.5870    1.5230 C   0  0  0  0  0  0  0  0  0  0  0  0
   -5.0780   14.7430    0.1720 C   0  0  0  0  0  0  0  0  0  0  0  0
   -7.4120   14.8330   -0.4380 N   0  0  0  0  0  0  0  0  0  0  0  0
   -6.1140   14.8650   -0.7680 C   0  0  0  0  0  0  0  0  0  0  0  0
   -3.7290   14.7720   -0.2670 C   0  0  0  0  0  0  0  0  0  0  0  0
   -5.7920   15.0180   -2.0860 C   0  0  0  0  0  0  0  0  0  0  0  0
   -3.4380   14.9160   -1.6430 C   0  0  0  0  0  0  0  0  0  0  0  0
   -2.0340   14.9090   -2.1330 C   0  0  0  0  0  0  0  0  0  0  0  0
   -6.8890   15.1200   -2.9000 O   0  0  0  0  0  0  0  0  0  0  0  0
   -4.4800   15.0500   -2.5630 C   0  0  0  0  0  0  0  0  0  0  0  0
   -1.9390   14.9920   -3.4810 O   0  0  0  0  0  0  0  0  0  0  0  0
   -1.0670   14.8200   -1.3980 O   0  0  0  0  0  0  0  0  0  0  0  0
  1  2  1  0
  2  3  2  0
  2  4  1  0
  4  5  2  0
  3  6  1  0
  5  7  1  0
  6  7  2  0
  5  8  1  0
  7  9  1  0
  8 10  2  0
 10 11  1  0
  9 12  1  0
  9 13  2  0
 10 13  1  0
 11 14  1  0
 11 15  2  0
M  END
