mac-x0441-diamond-x0837_0_A
     RDKit          3D

 28 30  0  0  0  0  0  0  0  0999 V2000
    0.4010   10.7910   -3.3570 O   0  0  0  0  0  0  0  0  0  0  0  0
    0.8910   12.0710   -3.5520 C   0  0  0  0  0  0  0  0  0  0  0  0
    1.3910   12.6400   -2.5510 O   0  0  0  0  0  0  0  0  0  0  0  0
    0.7960   12.6840   -4.8820 C   0  0  2  0  0  0  0  0  0  0  0  0
   -0.0890   13.8940   -4.8860 C   0  0  0  0  0  0  0  0  0  0  0  0
    0.4400   11.7590   -5.9550 N   0  0  0  0  0  0  0  0  0  0  0  0
   -1.2250   13.5590   -3.9550 C   0  0  0  0  0  0  0  0  0  0  0  0
    1.0930   11.6900   -7.1160 N   0  0  0  0  0  0  0  0  0  0  0  0
   -0.5480   10.8430   -6.0160 C   0  0  0  0  0  0  0  0  0  0  0  0
   -1.3730   14.4900   -2.8030 C   0  0  0  0  0  0  0  0  0  0  0  0
    0.5590   10.7670   -7.9140 C   0  0  0  0  0  0  0  0  0  0  0  0
   -0.4820   10.2070   -7.2390 C   0  0  0  0  0  0  0  0  0  0  0  0
   -1.6020   10.4390   -5.0730 C   0  0  0  0  0  0  0  0  0  0  0  0
    0.9500   10.3470   -9.3060 C   0  0  0  0  0  0  0  0  0  0  0  0
   -3.4450   15.0450   -2.8500 I   0  0  0  0  0  0  0  0  0  0  0  0
   -1.3880    9.1360   -7.6820 C   0  0  0  0  0  0  0  0  0  0  0  0
   -2.7890    9.9010   -5.8940 C   0  0  0  0  0  0  0  0  0  0  0  0
    1.6640    9.1700   -9.2340 F   0  0  0  0  0  0  0  0  0  0  0  0
   -0.1580   10.2160  -10.0960 F   0  0  0  0  0  0  0  0  0  0  0  0
    1.7220   11.2730   -9.9530 F   0  0  0  0  0  0  0  0  0  0  0  0
   -2.2890    8.6690   -6.6010 C   0  0  0  0  0  0  0  0  0  0  0  0
   -4.3910   14.5250   -0.9890 C   0  0  1  0  0  0  0  0  0  0  0  0
   -3.5980   15.0210    0.1210 C   0  0  0  0  0  0  0  0  0  0  0  0
   -5.7160   15.1690   -0.9710 C   0  0  0  0  0  0  0  0  0  0  0  0
   -4.1340   15.1610    1.2860 C   0  0  0  0  0  0  0  0  0  0  0  0
   -6.3420   14.8190    0.3250 C   0  0  0  0  0  0  0  0  0  0  0  0
   -7.5410   14.5360    0.3890 O   0  0  0  0  0  0  0  0  0  0  0  0
   -5.5100   14.8310    1.5200 N   0  0  0  0  0  0  0  0  0  0  0  0
  1  2  1  0
  2  3  2  0
  2  4  1  0
  4  5  1  1
  4  6  1  0
  5  7  1  0
  6  8  1  0
  6  9  1  0
  7 10  1  0
  8 11  2  0
  9 12  2  0
 11 12  1  0
  9 13  1  0
 11 14  1  0
 10 15  1  0
 12 16  1  0
 13 17  1  0
 14 18  1  0
 14 19  1  0
 14 20  1  0
 16 21  1  0
 17 21  1  0
 22 15  1  6
 22 23  1  0
 22 24  1  0
 23 25  2  0
 24 26  1  0
 26 27  2  0
 25 28  1  0
 26 28  1  0
M  END
