mac-x0441-mac-x0231
     RDKit          3D

 28 31  0  0  0  0  0  0  0  0999 V2000
    0.2830   10.5190   -3.2510 O   0  0  0  0  0  0  0  0  0  0  0  0
    0.8330   11.7430   -3.2340 C   0  0  0  0  0  0  0  0  0  0  0  0
    1.0810   12.2880   -2.1670 O   0  0  0  0  0  0  0  0  0  0  0  0
    1.0780   12.3460   -4.5850 C   0  0  1  0  0  0  0  0  0  0  0  0
    0.5380   11.5760   -5.7260 N   0  0  0  0  0  0  0  0  0  0  0  0
    0.7700   13.8180   -4.3530 C   0  0  2  0  0  0  0  0  0  0  0  0
    1.2520   11.6030   -6.8980 N   0  0  0  0  0  0  0  0  0  0  0  0
   -0.5900   10.7830   -5.8570 C   0  0  0  0  0  0  0  0  0  0  0  0
   -0.7230   14.1530   -4.4370 C   0  0  1  0  0  0  0  0  0  0  0  0
    1.6260   14.7610   -5.0490 N   0  0  0  0  0  0  0  0  0  0  0  0
    0.5760   10.8040   -7.7650 C   0  0  0  0  0  0  0  0  0  0  0  0
   -0.5700   10.2870   -7.1440 C   0  0  0  0  0  0  0  0  0  0  0  0
   -1.6600   10.4610   -4.8630 C   0  0  0  0  0  0  0  0  0  0  0  0
   -0.9810   15.6760   -4.3590 C   0  0  1  0  0  0  0  0  0  0  0  0
    1.4140   16.0830   -4.6760 N   0  0  0  0  0  0  0  0  0  0  0  0
   -1.5540   13.4110   -5.4610 C   0  0  0  0  0  0  0  0  0  0  0  0
    0.9320   10.4600   -9.1980 C   0  0  0  0  0  0  0  0  0  0  0  0
   -1.5950    9.3720   -7.7120 C   0  0  0  0  0  0  0  0  0  0  0  0
   -2.8630    9.8000   -5.5740 C   0  0  0  0  0  0  0  0  0  0  0  0
    0.1640   16.6060   -4.7930 C   0  0  0  0  0  0  0  0  0  0  0  0
   -2.3110   16.0950   -4.9460 C   0  0  0  0  0  0  0  0  0  0  0  0
   -2.6330   13.9460   -6.0200 C   0  0  0  0  0  0  0  0  0  0  0  0
    1.6030    9.2770   -9.2590 F   0  0  0  0  0  0  0  0  0  0  0  0
   -0.1520   10.3020   -9.9900 F   0  0  0  0  0  0  0  0  0  0  0  0
    1.6850   11.3520   -9.8680 F   0  0  0  0  0  0  0  0  0  0  0  0
    0.0100   17.7520   -5.2110 O   0  0  0  0  0  0  0  0  0  0  0  0
   -2.4240    8.7360   -6.5900 C   0  0  0  0  0  0  0  0  0  0  0  0
   -3.0630   15.2810   -5.7000 C   0  0  0  0  0  0  0  0  0  0  0  0
  1  2  1  0
  2  3  2  0
  4  2  1  1
  4  5  1  0
  4  6  1  0
  5  7  1  0
  5  8  1  0
  6  9  1  0
  6 10  1  6
  7 11  2  0
  8 12  2  0
 11 12  1  0
  8 13  1  0
  9 14  1  0
 10 15  1  0
  9 16  1  6
 11 17  1  0
 12 18  1  0
 13 19  1  0
 14 20  1  0
 15 20  1  0
 14 21  1  6
 16 22  2  0
 17 23  1  0
 17 24  1  0
 17 25  1  0
 20 26  2  0
 18 27  1  0
 19 27  1  0
 21 28  2  0
 22 28  1  0
M  END
