mac-x0373-mac-x0433
     RDKit          3D

 24 26  0  0  0  0  0  0  0  0999 V2000
    1.5070   13.3010   -1.4650 O   0  0  0  0  0  0  0  0  0  0  0  0
    0.6200   14.0830   -2.1280 C   0  0  0  0  0  0  0  0  0  0  0  0
    0.9700   15.1260   -2.6510 O   0  0  0  0  0  0  0  0  0  0  0  0
   -0.7890   13.5110   -2.0900 C   0  0  2  0  0  0  0  0  0  0  0  0
   -1.3830   12.7770   -3.2860 C   0  0  0  0  0  0  0  0  0  0  0  0
   -1.7000   14.3410   -1.2410 C   0  0  0  0  0  0  0  0  0  0  0  0
   -0.8590   12.8460   -4.5860 C   0  0  0  0  0  0  0  0  0  0  0  0
   -2.5120   11.9710   -3.0560 C   0  0  0  0  0  0  0  0  0  0  0  0
   -1.1180   15.2040   -0.3750 C   0  0  0  0  0  0  0  0  0  0  0  0
   -3.0530   14.2960   -1.2460 C   0  0  0  0  0  0  0  0  0  0  0  0
   -1.4480   12.1190   -5.6240 C   0  0  0  0  0  0  0  0  0  0  0  0
   -3.0980   11.2490   -4.0900 C   0  0  0  0  0  0  0  0  0  0  0  0
   -1.8510   15.9820    0.4660 C   0  0  0  0  0  0  0  0  0  0  0  0
   -3.7930   15.1000   -0.3910 C   0  0  0  0  0  0  0  0  0  0  0  0
   -2.5640   11.3210   -5.3740 C   0  0  0  0  0  0  0  0  0  0  0  0
   -3.2090   15.9480    0.4760 C   0  0  0  0  0  0  0  0  0  0  0  0
   -5.1620   14.9700   -0.5050 C   0  0  0  0  0  0  0  0  0  0  0  0
   -5.4470   15.0100   -1.7840 N   0  0  0  0  0  0  0  0  0  0  0  0
   -6.0510   14.8200    0.5080 C   0  0  0  0  0  0  0  0  0  0  0  0
   -6.6890   14.8890   -2.1010 C   0  0  0  0  0  0  0  0  0  0  0  0
   -7.3490   14.7070    0.0850 C   0  0  0  0  0  0  0  0  0  0  0  0
   -8.4400   14.5390    1.0860 C   0  0  0  0  0  0  0  0  0  0  0  0
   -6.9450   14.9090   -3.4410 N   0  0  0  0  0  0  0  0  0  0  0  0
   -7.6830   14.7410   -1.2240 N   0  0  0  0  0  0  0  0  0  0  0  0
  1  2  1  0
  2  3  2  0
  4  2  1  6
  4  5  1  0
  4  6  1  0
  5  7  2  0
  5  8  1  0
  6  9  2  0
  6 10  1  0
  7 11  1  0
  8 12  2  0
  9 13  1  0
 10 14  2  0
 11 15  2  0
 12 15  1  0
 13 16  2  0
 14 16  1  0
 14 17  1  0
 17 18  2  0
 17 19  1  0
 18 20  1  0
 19 21  2  0
 21 22  1  0
 20 23  1  0
 20 24  2  0
 21 24  1  0
M  END
