mac-x0398-diamond-x1018_0_A
     RDKit          3D

 15 16  0  0  0  0  0  0  0  0999 V2000
   -6.1290   15.0020    2.3360 N   0  0  0  0  0  0  0  0  0  0  0  0
   -5.4770   14.8400    1.1500 C   0  0  0  0  0  0  0  0  0  0  0  0
   -4.0550   14.5690    1.1160 C   0  0  0  0  0  0  0  0  0  0  0  0
   -5.9540   14.8700   -0.1160 C   0  0  0  0  0  0  0  0  0  0  0  0
   -7.5970   15.1230   -0.5190 Cl  0  0  0  0  0  0  0  0  0  0  0  0
   -4.8320   14.5780   -1.0890 C   0  0  2  0  0  0  0  0  0  0  0  0
   -3.6940   14.4110   -0.1620 C   0  0  0  0  0  0  0  0  0  0  0  0
   -4.3630   15.3810   -2.2630 C   0  0  0  0  0  0  0  0  0  0  0  0
   -4.8700   13.3200   -1.7740 C   0  0  0  0  0  0  0  0  0  0  0  0
   -2.5150   14.1320   -0.7260 N   0  0  0  0  0  0  0  0  0  0  0  0
   -4.9220   15.5010   -3.3190 O   0  0  0  0  0  0  0  0  0  0  0  0
   -3.1400   15.8980   -2.1230 O   0  0  0  0  0  0  0  0  0  0  0  0
   -6.0770   12.7930   -2.0140 O   0  0  0  0  0  0  0  0  0  0  0  0
   -2.6030   13.5600   -1.8480 N   0  0  0  0  0  0  0  0  0  0  0  0
   -3.7740   12.8030   -2.1690 N   0  0  0  0  0  0  0  0  0  0  0  0
  1  2  1  0
  2  3  1  0
  2  4  2  0
  4  5  1  0
  4  6  1  0
  3  7  2  0
  6  7  1  0
  6  8  1  6
  6  9  1  0
  7 10  1  0
  8 11  2  0
  8 12  1  0
  9 13  1  0
 10 14  2  0
  9 15  2  0
 14 15  1  0
M  END
