mac-x0496-mac-x0373
     RDKit          3D

 28 30  0  0  0  0  0  0  0  0999 V2000
   -9.7000   17.7120    4.7200 C   0  0  0  0  0  0  0  0  0  0  0  0
   -9.6450   16.7530    3.5900 C   0  0  0  0  0  0  0  0  0  0  0  0
  -10.3350   16.8850    2.4460 N   0  0  0  0  0  0  0  0  0  0  0  0
   -8.8630   15.6420    3.6400 N   0  0  0  0  0  0  0  0  0  0  0  0
   -9.9790   15.7730    1.6990 O   0  0  0  0  0  0  0  0  0  0  0  0
   -9.0960   15.0880    2.4740 C   0  0  0  0  0  0  0  0  0  0  0  0
   -8.5280   13.8570    1.9060 C   0  0  0  0  0  0  0  0  0  0  0  0
   -7.1200   14.0980    1.6630 N   0  0  0  0  0  0  0  0  0  0  0  0
   -6.7090   14.7060    0.4960 C   0  0  0  0  0  0  0  0  0  0  0  0
   -7.4710   15.1100   -0.3770 O   0  0  0  0  0  0  0  0  0  0  0  0
   -5.2430   14.8100    0.3400 C   0  0  0  0  0  0  0  0  0  0  0  0
   -4.4440   15.2140    1.4100 C   0  0  0  0  0  0  0  0  0  0  0  0
   -4.6520   14.4840   -0.8510 C   0  0  0  0  0  0  0  0  0  0  0  0
   -3.0590   15.2650    1.2510 C   0  0  0  0  0  0  0  0  0  0  0  0
   -3.2750   14.5350   -0.9950 C   0  0  0  0  0  0  0  0  0  0  0  0
   -2.7660   14.0870   -2.2660 C   0  0  0  0  0  0  0  0  0  0  0  0
   -2.4700   14.9280    0.0510 C   0  0  0  0  0  0  0  0  0  0  0  0
   -1.4990   13.7860   -2.6050 C   0  0  0  0  0  0  0  0  0  0  0  0
   -3.8340   13.9070   -3.1270 O   0  0  0  0  0  0  0  0  0  0  0  0
   -0.2780   13.9770   -1.7670 C   0  0  0  0  0  0  0  0  0  0  0  0
   -1.4780   13.0690   -3.8610 C   0  0  0  0  0  0  0  0  0  0  0  0
   -0.1130   13.0460   -0.8040 O   0  0  0  0  0  0  0  0  0  0  0  0
    0.5480   14.8740   -1.9180 O   0  0  0  0  0  0  0  0  0  0  0  0
   -0.7300   13.2700   -5.0130 C   0  0  0  0  0  0  0  0  0  0  0  0
   -2.3920   12.0020   -3.7880 C   0  0  0  0  0  0  0  0  0  0  0  0
   -0.9150   12.3800   -6.0800 C   0  0  0  0  0  0  0  0  0  0  0  0
   -2.5730   11.1330   -4.8330 C   0  0  0  0  0  0  0  0  0  0  0  0
   -1.8330   11.3170   -5.9870 C   0  0  0  0  0  0  0  0  0  0  0  0
  1  2  1  0
  2  3  2  0
  2  4  1  0
  3  5  1  0
  4  6  2  0
  5  6  1  0
  6  7  1  0
  7  8  1  0
  8  9  1  0
  9 10  2  0
  9 11  1  0
 11 12  2  0
 11 13  1  0
 12 14  1  0
 13 15  2  0
 15 16  1  0
 14 17  2  0
 15 17  1  0
 16 18  2  3
 16 19  1  0
 18 20  1  0
 18 21  1  0
 20 22  1  0
 20 23  2  0
 21 24  2  0
 21 25  1  0
 24 26  1  0
 25 27  2  0
 26 28  2  0
 27 28  1  0
M  END
