mac-x0345-mac-x0283
     RDKit          3D

 13 14  0  0  0  0  0  0  0  0999 V2000
   -6.7060   12.6740    0.2270 C   0  0  0  0  0  0  0  0  0  0  0  0
   -5.5750   12.6680   -0.8190 C   0  0  0  0  0  0  0  0  0  0  0  0
   -5.8490   13.3750   -2.0530 N   0  0  0  0  0  0  0  0  0  0  0  0
   -4.8010   14.0520   -2.8180 C   0  0  2  0  0  0  0  0  0  0  0  0
   -6.4320   14.5310   -1.6240 C   0  0  2  0  0  0  0  0  0  0  0  0
   -4.3120   13.2960   -3.9180 N   0  0  0  0  0  0  0  0  0  0  0  0
   -5.5020   15.1460   -0.4930 C   0  0  1  0  0  0  0  0  0  0  0  0
   -3.7180   14.6430   -1.9600 C   0  0  0  0  0  0  0  0  0  0  0  0
   -7.7580   14.8820   -1.1770 N   0  0  0  0  0  0  0  0  0  0  0  0
   -5.6910   14.6500    1.3960 Br  0  0  0  0  0  0  0  0  0  0  0  0
   -4.0530   15.1910   -0.8060 C   0  0  0  0  0  0  0  0  0  0  0  0
   -6.1470   16.3860   -0.8060 C   0  0  0  0  0  0  0  0  0  0  0  0
   -7.4520   16.2120   -1.1790 C   0  0  0  0  0  0  0  0  0  0  0  0
  1  2  1  0
  2  3  1  0
  3  4  1  0
  3  5  1  0
  4  6  1  6
  5  7  1  0
  4  8  1  0
  5  9  1  1
  7 10  1  1
  7 11  1  0
  8 11  2  0
  7 12  1  0
  9 13  1  0
 12 13  2  0
M  END
