mac-x0392-mac-x0178
     RDKit          3D

 23 24  0  0  0  0  0  0  0  0999 V2000
   -0.1310   13.7520    0.3670 N   0  0  0  0  0  0  0  0  0  0  0  0
   -1.4670   14.2140    0.3210 C   0  0  0  0  0  0  0  0  0  0  0  0
   -2.2000   14.3920    1.4580 C   0  0  0  0  0  0  0  0  0  0  0  0
   -2.1510   14.5300   -0.8350 C   0  0  0  0  0  0  0  0  0  0  0  0
   -1.5670   14.4280   -2.1210 C   0  0  0  0  0  0  0  0  0  0  0  0
   -3.4660   14.9930   -0.8390 C   0  0  0  0  0  0  0  0  0  0  0  0
   -3.4750   14.8410    1.5190 N   0  0  0  0  0  0  0  0  0  0  0  0
   -1.8930   13.7130   -3.1150 N   0  0  0  0  0  0  0  0  0  0  0  0
   -0.5110   15.2660   -2.2100 O   0  0  0  0  0  0  0  0  0  0  0  0
   -4.0860   15.1340    0.3620 C   0  0  0  0  0  0  0  0  0  0  0  0
   -0.9710   14.3410   -3.8130 C   0  0  0  0  0  0  0  0  0  0  0  0
    0.3550   14.0070   -3.8790 C   0  0  0  0  0  0  0  0  0  0  0  0
   -1.5050   15.4370   -4.4220 C   0  0  0  0  0  0  0  0  0  0  0  0
    0.8750   12.8120   -3.1840 C   0  0  0  0  0  0  0  0  0  0  0  0
   -0.7140   16.2780   -5.1250 C   0  0  0  0  0  0  0  0  0  0  0  0
    1.1970   14.8520   -4.6070 C   0  0  0  0  0  0  0  0  0  0  0  0
   -1.5270   17.6840   -5.8350 S   0  0  0  0  0  0  0  0  0  0  0  0
    1.6770   12.7940   -2.2710 O   0  0  0  0  0  0  0  0  0  0  0  0
    0.3210   11.6920   -3.6720 O   0  0  0  0  0  0  0  0  0  0  0  0
    0.6610   16.0000   -5.2320 C   0  0  0  0  0  0  0  0  0  0  0  0
   -0.2570   18.4730   -6.5900 N   0  0  0  0  0  0  0  0  0  0  0  0
   -2.4640   17.2360   -6.8300 O   0  0  0  0  0  0  0  0  0  0  0  0
   -1.9600   18.5340   -4.7520 O   0  0  0  0  0  0  0  0  0  0  0  0
  1  2  1  0
  2  3  2  0
  2  4  1  0
  4  5  1  0
  4  6  2  0
  3  7  1  0
  5  8  2  3
  5  9  1  0
  6 10  1  0
  7 10  2  0
  8 11  1  0
 11 12  2  0
 11 13  1  0
 12 14  1  0
 13 15  2  0
 12 16  1  0
 15 17  1  0
 14 18  2  0
 14 19  1  0
 15 20  1  0
 16 20  2  0
 17 21  1  0
 17 22  2  0
 17 23  2  0
M  END
