mac-x0360-diamond-x0849_0_A
     RDKit          3D

 22 24  0  0  0  0  0  0  0  0999 V2000
   -7.3690   12.1220    1.6950 Cl  0  0  0  0  0  0  0  0  0  0  0  0
   -6.3560   12.0470    0.3040 C   0  0  0  0  0  0  0  0  0  0  0  0
   -6.3040   10.8410   -0.3850 C   0  0  0  0  0  0  0  0  0  0  0  0
   -5.6060   13.1600   -0.1340 C   0  0  0  0  0  0  0  0  0  0  0  0
   -4.8070   13.0020   -1.2890 C   0  0  0  0  0  0  0  0  0  0  0  0
   -5.5020   10.7270   -1.5110 C   0  0  0  0  0  0  0  0  0  0  0  0
   -5.4080    9.2520   -2.3850 Cl  0  0  0  0  0  0  0  0  0  0  0  0
   -3.7670   14.2070   -2.0920 S   0  0  0  0  0  0  0  0  0  0  0  0
   -4.7630   11.7940   -1.9550 C   0  0  0  0  0  0  0  0  0  0  0  0
   -3.9090   15.6800   -1.4410 N   0  0  0  0  0  0  0  0  0  0  0  0
   -4.2160   14.3810   -3.4190 O   0  0  0  0  0  0  0  0  0  0  0  0
   -2.4390   13.8250   -1.7050 O   0  0  0  0  0  0  0  0  0  0  0  0
   -3.6170   15.4400   -0.1500 C   0  0  0  0  0  0  0  0  0  0  0  0
   -2.3570   14.9980    0.2510 C   0  0  0  0  0  0  0  0  0  0  0  0
   -4.6470   15.6400    0.6900 C   0  0  0  0  0  0  0  0  0  0  0  0
   -2.2510   14.7810    1.5850 C   0  0  0  0  0  0  0  0  0  0  0  0
   -4.4100   15.3950    1.9910 C   0  0  0  0  0  0  0  0  0  0  0  0
   -1.2070   14.7550   -0.5590 C   0  0  0  0  0  0  0  0  0  0  0  0
   -3.2180   14.9720    2.4150 N   0  0  0  0  0  0  0  0  0  0  0  0
   -1.1780   14.3660    2.1260 N   0  0  0  0  0  0  0  0  0  0  0  0
   -0.0520   14.3000    0.0480 C   0  0  0  0  0  0  0  0  0  0  0  0
   -0.1270   14.1240    1.4060 C   0  0  0  0  0  0  0  0  0  0  0  0
  1  2  1  0
  2  3  2  0
  2  4  1  0
  4  5  2  0
  3  6  1  0
  6  7  1  0
  5  8  1  0
  5  9  1  0
  6  9  2  0
  8 10  1  0
  8 11  2  0
  8 12  2  0
 10 13  1  0
 13 14  1  0
 13 15  2  0
 14 16  2  0
 15 17  1  0
 14 18  1  0
 16 19  1  0
 17 19  2  0
 16 20  1  0
 18 21  2  0
 20 22  2  0
 21 22  1  0
M  END
