mac-x0411-diamond-x0849_0_A
     RDKit          3D

 26 28  0  0  0  0  0  0  0  0999 V2000
    0.6080    8.9340   -7.7490 Cl  0  0  0  0  0  0  0  0  0  0  0  0
   -0.6590    9.6290   -6.7920 C   0  0  0  0  0  0  0  0  0  0  0  0
   -0.5110   10.8620   -6.1070 C   0  0  0  0  0  0  0  0  0  0  0  0
   -1.8520    8.9200   -6.7220 C   0  0  0  0  0  0  0  0  0  0  0  0
    0.7070   11.5120   -6.2160 O   0  0  0  0  0  0  0  0  0  0  0  0
   -1.5950   11.3890   -5.3440 C   0  0  0  0  0  0  0  0  0  0  0  0
   -2.9120    9.4190   -5.9810 C   0  0  0  0  0  0  0  0  0  0  0  0
   -1.5430   12.7120   -4.5700 C   0  0  0  0  0  0  0  0  0  0  0  0
    1.0140   12.4850   -5.2060 C   0  0  0  0  0  0  0  0  0  0  0  0
   -2.7870   10.6360   -5.3030 C   0  0  0  0  0  0  0  0  0  0  0  0
    0.8880   11.9190   -3.8010 C   0  0  0  0  0  0  0  0  0  0  0  0
   -2.7870   13.6290   -4.5900 C   0  0  0  0  0  0  0  0  0  0  0  0
    1.4490   12.6840   -2.8460 O   0  0  0  0  0  0  0  0  0  0  0  0
    0.3520   10.8640   -3.4930 O   0  0  0  0  0  0  0  0  0  0  0  0
   -3.4710   13.8380   -3.2200 C   0  0  0  0  0  0  0  0  0  0  0  0
   -3.2000   15.0740   -2.5400 O   0  0  0  0  0  0  0  0  0  0  0  0
   -3.3900   15.1020   -1.1720 C   0  0  0  0  0  0  0  0  0  0  0  0
   -2.2540   14.8340   -0.3620 C   0  0  0  0  0  0  0  0  0  0  0  0
   -4.5970   15.3640   -0.5470 C   0  0  0  0  0  0  0  0  0  0  0  0
   -2.4140   14.8370    1.0310 C   0  0  0  0  0  0  0  0  0  0  0  0
   -4.6260   15.3410    0.8260 C   0  0  0  0  0  0  0  0  0  0  0  0
   -0.9700   14.5670   -0.8700 C   0  0  0  0  0  0  0  0  0  0  0  0
   -3.5720   15.0860    1.5990 N   0  0  0  0  0  0  0  0  0  0  0  0
   -1.4140   14.5890    1.8530 N   0  0  0  0  0  0  0  0  0  0  0  0
    0.0780   14.3200    0.0020 C   0  0  0  0  0  0  0  0  0  0  0  0
   -0.2100   14.3430    1.3500 C   0  0  0  0  0  0  0  0  0  0  0  0
  1  2  1  0
  2  3  2  0
  2  4  1  0
  3  5  1  0
  3  6  1  0
  4  7  2  0
  6  8  1  0
  5  9  1  0
  6 10  2  0
  7 10  1  0
  9 11  1  0
  8 12  1  0
 11 13  1  0
 11 14  2  0
 12 15  1  0
 15 16  1  0
 16 17  1  0
 17 18  1  0
 17 19  2  0
 18 20  2  0
 19 21  1  0
 18 22  1  0
 20 23  1  0
 21 23  2  0
 20 24  1  0
 22 25  2  0
 24 26  2  0
 25 26  1  0
M  END
