mac-x0546-mac-x0358
     RDKit          3D

 22 24  0  0  0  0  0  0  0  0999 V2000
   -4.2500   15.6470   -6.2060 C   0  0  0  0  0  0  0  0  0  0  0  0
   -3.3680   16.7740   -6.1440 O   0  0  0  0  0  0  0  0  0  0  0  0
   -2.2370   16.6390   -5.3870 C   0  0  0  0  0  0  0  0  0  0  0  0
   -1.8470   15.5180   -4.7680 C   0  0  0  0  0  0  0  0  0  0  0  0
   -1.4210   17.8510   -5.2820 C   0  0  0  0  0  0  0  0  0  0  0  0
   -0.5810   15.5080   -3.9830 C   0  0  2  0  0  0  0  0  0  0  0  0
   -0.1310   17.8370   -4.8720 C   0  0  0  0  0  0  0  0  0  0  0  0
    0.3740   16.4980   -4.5560 C   0  0  0  0  0  0  0  0  0  0  0  0
    0.3410   14.3520   -4.0050 C   0  0  0  0  0  0  0  0  0  0  0  0
   -0.2510   13.0660   -3.6180 C   0  0  2  0  0  0  0  0  0  0  0  0
    1.5750   16.0760   -4.7210 N   0  0  0  0  0  0  0  0  0  0  0  0
    1.5450   14.7480   -4.3950 C   0  0  0  0  0  0  0  0  0  0  0  0
    0.7120   12.0330   -3.0830 C   0  0  0  0  0  0  0  0  0  0  0  0
   -1.1630   12.7190   -4.7610 C   0  0  0  0  0  0  0  0  0  0  0  0
    1.7280   12.2860   -2.4590 O   0  0  0  0  0  0  0  0  0  0  0  0
    0.3300   10.7680   -3.3400 O   0  0  0  0  0  0  0  0  0  0  0  0
   -1.4770   11.4880   -5.3230 C   0  0  0  0  0  0  0  0  0  0  0  0
   -1.7660   13.8550   -5.3060 C   0  0  0  0  0  0  0  0  0  0  0  0
   -0.9770   10.2890   -4.9150 O   0  0  0  0  0  0  0  0  0  0  0  0
   -2.3770   11.4230   -6.3900 C   0  0  0  0  0  0  0  0  0  0  0  0
   -2.6530   13.7920   -6.3610 C   0  0  0  0  0  0  0  0  0  0  0  0
   -2.9630   12.5720   -6.9060 C   0  0  0  0  0  0  0  0  0  0  0  0
  1  2  1  0
  2  3  1  0
  3  4  2  0
  3  5  1  0
  6  4  1  6
  5  7  2  0
  6  8  1  0
  7  8  1  0
  6  9  1  0
  9 10  1  0
  8 11  2  0
  9 12  2  0
 11 12  1  0
 10 13  1  6
 10 14  1  0
 13 15  2  0
 13 16  1  0
 14 17  2  0
 14 18  1  0
 17 19  1  0
 17 20  1  0
 18 21  2  0
 20 22  2  0
 21 22  1  0
M  END
