mac-x0379-mac-x0231
     RDKit          3D

 24 26  0  0  0  0  0  0  0  0999 V2000
   -4.9920   14.9760    1.0960 C   0  0  0  0  0  0  0  0  0  0  0  0
   -4.6300   15.1030   -0.3210 C   0  0  0  0  0  0  0  0  0  0  0  0
   -5.5020   15.2260   -1.2780 N   0  0  0  0  0  0  0  0  0  0  0  0
   -2.9900   15.0770   -0.7830 S   0  0  0  0  0  0  0  0  0  0  0  0
   -4.8510   15.3110   -2.4610 C   0  0  0  0  0  0  0  0  0  0  0  0
   -3.5010   15.2640   -2.4060 C   0  0  0  0  0  0  0  0  0  0  0  0
   -2.6530   15.3160   -3.5070 C   0  0  0  0  0  0  0  0  0  0  0  0
   -2.4860   16.0020   -4.6090 N   0  0  0  0  0  0  0  0  0  0  0  0
   -1.7420   14.3220   -3.3480 O   0  0  0  0  0  0  0  0  0  0  0  0
   -1.6340   15.0790   -4.9090 C   0  0  0  0  0  0  0  0  0  0  0  0
   -0.2950   15.0750   -4.7260 C   0  0  0  0  0  0  0  0  0  0  0  0
   -2.3570   13.9910   -5.4100 C   0  0  0  0  0  0  0  0  0  0  0  0
    0.3110   13.8670   -4.9760 C   0  0  0  0  0  0  0  0  0  0  0  0
    0.5060   16.2280   -4.2620 C   0  0  0  0  0  0  0  0  0  0  0  0
   -1.7340   12.8230   -5.7170 C   0  0  0  0  0  0  0  0  0  0  0  0
    0.0620   17.3420   -4.0030 O   0  0  0  0  0  0  0  0  0  0  0  0
    1.7060   13.7920   -4.6350 C   0  0  0  0  0  0  0  0  0  0  0  0
    1.8430   16.0010   -4.2060 N   0  0  0  0  0  0  0  0  0  0  0  0
   -0.3810   12.7520   -5.4790 C   0  0  0  0  0  0  0  0  0  0  0  0
    2.3100   12.4390   -4.5620 C   0  0  0  0  0  0  0  0  0  0  0  0
    2.4240   14.7870   -4.2570 N   0  0  0  0  0  0  0  0  0  0  0  0
    1.7430   11.9210   -3.2630 C   0  0  0  0  0  0  0  0  0  0  0  0
    1.1590   10.7110   -3.3000 O   0  0  0  0  0  0  0  0  0  0  0  0
    1.7950   12.5630   -2.2250 O   0  0  0  0  0  0  0  0  0  0  0  0
  1  2  1  0
  2  3  2  0
  2  4  1  0
  3  5  1  0
  4  6  1  0
  5  6  2  0
  6  7  1  0
  7  8  2  3
  7  9  1  0
  8 10  1  0
 10 11  1  0
 10 12  2  0
 11 13  2  0
 11 14  1  0
 12 15  1  0
 14 16  2  0
 13 17  1  0
 14 18  1  0
 13 19  1  0
 15 19  2  0
 17 20  1  0
 17 21  2  0
 18 21  1  0
 20 22  1  0
 22 23  1  0
 22 24  2  0
M  END
