mac-x0565-diamond-x0950_0_A
     RDKit          3D

 19 20  0  0  0  0  0  0  0  0999 V2000
   -5.4850   15.0850    0.8980 O   0  0  0  0  0  0  0  0  0  0  0  0
   -5.9810   14.9740   -0.3420 C   0  0  0  0  0  0  0  0  0  0  0  0
   -7.1830   14.9190   -0.5470 O   0  0  0  0  0  0  0  0  0  0  0  0
   -4.9130   14.9300   -1.3700 C   0  0  0  0  0  0  0  0  0  0  0  0
   -3.5500   14.7730   -1.0300 C   0  0  0  0  0  0  0  0  0  0  0  0
   -5.2970   15.0480   -2.7180 C   0  0  0  0  0  0  0  0  0  0  0  0
   -2.6080   14.7410   -2.0550 C   0  0  0  0  0  0  0  0  0  0  0  0
   -4.3430   15.0150   -3.7310 C   0  0  0  0  0  0  0  0  0  0  0  0
   -3.0240   14.8670   -3.3700 C   0  0  0  0  0  0  0  0  0  0  0  0
   -1.2020   14.5920   -1.9880 N   0  0  0  0  0  0  0  0  0  0  0  0
   -0.6910   13.3180   -1.4860 C   0  0  0  0  0  0  0  0  0  0  0  0
   -1.9810   14.8280   -4.2460 O   0  0  0  0  0  0  0  0  0  0  0  0
   -0.8380   14.9420   -3.3660 C   0  0  0  0  0  0  0  0  0  0  0  0
    0.6480   13.1000   -1.9720 O   0  0  0  0  0  0  0  0  0  0  0  0
    0.7530   12.1610   -2.9620 C   0  0  0  0  0  0  0  0  0  0  0  0
    1.3680   12.8000   -4.2240 C   0  0  1  0  0  0  0  0  0  0  0  0
    0.4120   10.9890   -2.8520 O   0  0  0  0  0  0  0  0  0  0  0  0
    2.8660   12.9490   -4.0480 C   0  0  0  0  0  0  0  0  0  0  0  0
    1.1130   12.0630   -5.4180 O   0  0  0  0  0  0  0  0  0  0  0  0
  1  2  1  0
  2  3  2  0
  2  4  1  0
  4  5  2  0
  4  6  1  0
  5  7  1  0
  6  8  2  0
  7  9  2  0
  8  9  1  0
  7 10  1  0
 10 11  1  0
  9 12  1  0
 10 13  1  0
 12 13  1  0
 11 14  1  0
 14 15  1  0
 15 16  1  0
 15 17  2  0
 16 18  1  1
 16 19  1  0
M  END
