mac-x0179-diamond-x0864_0_A
     RDKit          3D

 16 17  0  0  0  0  0  0  0  0999 V2000
    1.3800   13.0640   -2.4550 O   0  0  0  0  0  0  0  0  0  0  0  0
    0.8160   12.1710   -3.3020 C   0  0  0  0  0  0  0  0  0  0  0  0
    0.6660   11.0070   -2.9740 O   0  0  0  0  0  0  0  0  0  0  0  0
    0.4080   12.7220   -4.6650 C   0  0  0  0  0  0  0  0  0  0  0  0
   -0.0710   11.6880   -5.5850 N   0  0  0  0  0  0  0  0  0  0  0  0
    0.6630   11.2540   -6.6480 C   0  0  0  0  0  0  0  0  0  0  0  0
   -1.1500   10.8740   -5.3470 C   0  0  0  0  0  0  0  0  0  0  0  0
    1.6700   11.7880   -7.0430 O   0  0  0  0  0  0  0  0  0  0  0  0
   -1.8780   11.0060   -4.3680 O   0  0  0  0  0  0  0  0  0  0  0  0
    0.0630    9.9700   -7.2130 C   0  0  1  0  0  0  0  0  0  0  0  0
   -1.2550    9.8500   -6.4790 C   0  0  1  0  0  0  0  0  0  0  0  0
   -1.3380    8.0210   -5.8700 Br  0  0  0  0  0  0  0  0  0  0  0  0
   -0.0300    9.8550   -8.6970 C   0  0  0  0  0  0  0  0  0  0  0  0
   -2.5060    9.8820   -7.2710 C   0  0  0  0  0  0  0  0  0  0  0  0
   -1.2090    9.7670   -9.3180 C   0  0  0  0  0  0  0  0  0  0  0  0
   -2.4610    9.8210   -8.6000 C   0  0  0  0  0  0  0  0  0  0  0  0
  1  2  1  0
  2  3  2  0
  2  4  1  0
  4  5  1  0
  5  6  1  0
  5  7  1  0
  6  8  2  0
  7  9  2  0
  6 10  1  0
  7 11  1  0
 10 11  1  0
 11 12  1  1
 10 13  1  6
 11 14  1  0
 13 15  2  0
 14 16  2  0
 15 16  1  0
M  END
