mac-x0411-diamond-x0950_0_A
     RDKit          3D

 15 15  0  0  0  0  0  0  0  0999 V2000
    0.5120    8.4660   -7.4960 Cl  0  0  0  0  0  0  0  0  0  0  0  0
   -0.7790    9.4180   -6.8660 C   0  0  0  0  0  0  0  0  0  0  0  0
   -0.6510   10.7240   -6.3230 C   0  0  0  0  0  0  0  0  0  0  0  0
   -2.0220    8.7970   -6.9380 C   0  0  0  0  0  0  0  0  0  0  0  0
    0.5490   11.3880   -6.1910 O   0  0  0  0  0  0  0  0  0  0  0  0
   -1.8200   11.3730   -5.9030 C   0  0  0  0  0  0  0  0  0  0  0  0
   -3.1630    9.4490   -6.4950 C   0  0  0  0  0  0  0  0  0  0  0  0
   -1.8120   12.9820   -5.2800 Cl  0  0  0  0  0  0  0  0  0  0  0  0
    0.6120   12.3170   -5.0750 C   0  0  1  0  0  0  0  0  0  0  0  0
   -3.0590   10.7340   -5.9890 C   0  0  0  0  0  0  0  0  0  0  0  0
    0.7100   11.7170   -3.6600 C   0  0  0  0  0  0  0  0  0  0  0  0
    1.8180   13.2040   -5.2500 C   0  0  0  0  0  0  0  0  0  0  0  0
    1.1330   12.5800   -2.7080 O   0  0  0  0  0  0  0  0  0  0  0  0
    0.4380   10.5720   -3.3510 O   0  0  0  0  0  0  0  0  0  0  0  0
    2.9400   12.9510   -4.2660 C   0  0  0  0  0  0  0  0  0  0  0  0
  1  2  1  0
  2  3  2  0
  2  4  1  0
  3  5  1  0
  3  6  1  0
  4  7  2  0
  6  8  1  0
  5  9  1  0
  6 10  2  0
  7 10  1  0
  9 11  1  0
  9 12  1  6
 11 13  1  0
 11 14  2  0
 12 15  1  0
M  END
