mac-x0204-mac-x0572
     RDKit          3D

 25 27  0  0  0  0  0  0  0  0999 V2000
    0.7330   12.9480   -2.4730 O   0  0  0  0  0  0  0  0  0  0  0  0
    0.0380   14.1640   -2.6640 C   0  0  0  0  0  0  0  0  0  0  0  0
    1.0170   15.1680   -2.8790 O   0  0  0  0  0  0  0  0  0  0  0  0
   -0.7680   14.5200   -1.4230 C   0  0  0  0  0  0  0  0  0  0  0  0
   -0.9660   14.0950   -3.7910 C   0  0  0  0  0  0  0  0  0  0  0  0
   -2.2320   14.7270   -1.8660 C   0  0  0  0  0  0  0  0  0  0  0  0
   -1.4370   15.2600   -4.4140 C   0  0  0  0  0  0  0  0  0  0  0  0
   -1.4830   12.8820   -4.2490 C   0  0  0  0  0  0  0  0  0  0  0  0
   -2.3810   15.1750   -5.4260 C   0  0  0  0  0  0  0  0  0  0  0  0
   -2.4020   12.7700   -5.2390 N   0  0  0  0  0  0  0  0  0  0  0  0
   -3.2990   14.7100   -0.8210 C   0  0  0  0  0  0  0  0  0  0  0  0
   -2.8260   16.3240   -6.0050 O   0  0  0  0  0  0  0  0  0  0  0  0
   -2.8330   13.9180   -5.8030 C   0  0  0  0  0  0  0  0  0  0  0  0
   -2.8840   15.0850    0.5190 C   0  0  0  0  0  0  0  0  0  0  0  0
   -4.5640   14.3510   -1.0670 C   0  0  0  0  0  0  0  0  0  0  0  0
   -5.5940   14.2590    0.0120 C   0  0  2  0  0  0  0  0  0  0  0  0
   -3.7300   15.1570    1.5420 C   0  0  0  0  0  0  0  0  0  0  0  0
   -7.0080   14.6470   -0.3030 C   0  0  0  0  0  0  0  0  0  0  0  0
   -5.1580   14.8410    1.3240 C   0  0  0  0  0  0  0  0  0  0  0  0
   -7.4540   14.9870   -1.3980 O   0  0  0  0  0  0  0  0  0  0  0  0
   -7.9060   14.5650    0.8750 C   0  0  0  0  0  0  0  0  0  0  0  0
   -6.0050   15.0590    2.2740 N   0  0  0  0  0  0  0  0  0  0  0  0
   -9.2420   14.2860    0.6680 O   0  0  0  0  0  0  0  0  0  0  0  0
   -7.3400   14.7680    2.0810 C   0  0  0  0  0  0  0  0  0  0  0  0
   -8.1280   14.7040    3.3610 C   0  0  0  0  0  0  0  0  0  0  0  0
  2  1  1  0
  2  3  1  0
  2  4  1  0
  2  5  1  0
  4  6  1  0
  5  7  2  0
  5  8  1  0
  7  9  1  0
  8 10  2  0
  6 11  1  0
  9 12  1  0
  9 13  2  0
 10 13  1  0
 11 14  1  0
 11 15  2  0
 16 15  1  6
 14 17  2  0
 16 18  1  0
 16 19  1  0
 17 19  1  0
 18 20  2  0
 18 21  1  0
 19 22  2  0
 21 23  1  0
 21 24  2  0
 22 24  1  0
 24 25  1  0
M  END
