mac-x0124-mac-x1493
     RDKit          3D

 23 26  0  0  0  0  0  0  0  0999 V2000
   -1.4600   14.5020   -3.0900 C   0  0  0  0  0  0  0  0  0  0  0  0
   -2.7250   13.8860   -3.6210 C   0  0  0  0  0  0  0  0  0  0  0  0
   -2.7800   13.2840   -4.6820 O   0  0  0  0  0  0  0  0  0  0  0  0
   -2.0990   14.8630   -1.9070 N   0  0  0  0  0  0  0  0  0  0  0  0
   -3.3330   15.4520   -2.0130 C   0  0  0  0  0  0  0  0  0  0  0  0
   -1.7320   14.7070   -0.6150 C   0  0  0  0  0  0  0  0  0  0  0  0
   -3.9710   14.0750   -2.7490 C   0  0  0  0  0  0  0  0  0  0  0  0
   -3.7980   15.6670   -0.7640 C   0  0  0  0  0  0  0  0  0  0  0  0
   -2.8050   15.1960    0.1160 C   0  0  0  0  0  0  0  0  0  0  0  0
   -0.5900   14.1850   -0.1410 N   0  0  0  0  0  0  0  0  0  0  0  0
   -3.9880   13.7610   -1.3570 C   0  0  0  0  0  0  0  0  0  0  0  0
   -5.1550   14.5820   -3.2580 C   0  0  0  0  0  0  0  0  0  0  0  0
   -2.7220   15.1390    1.4550 C   0  0  0  0  0  0  0  0  0  0  0  0
   -0.6170   14.1920    1.2010 C   0  0  0  0  0  0  0  0  0  0  0  0
   -5.1520   13.9880   -0.5660 C   0  0  0  0  0  0  0  0  0  0  0  0
   -6.2800   14.7980   -2.5260 N   0  0  0  0  0  0  0  0  0  0  0  0
   -3.7770   15.5990    2.2140 N   0  0  0  0  0  0  0  0  0  0  0  0
   -1.6060   14.6300    2.0060 N   0  0  0  0  0  0  0  0  0  0  0  0
   -6.2810   14.5180   -1.2160 C   0  0  0  0  0  0  0  0  0  0  0  0
   -5.2210   13.7140    0.8230 C   0  0  0  0  0  0  0  0  0  0  0  0
   -7.4340   14.7600   -0.4780 C   0  0  0  0  0  0  0  0  0  0  0  0
   -6.3990   13.9690    1.5350 C   0  0  0  0  0  0  0  0  0  0  0  0
   -7.5020   14.4910    0.8880 C   0  0  0  0  0  0  0  0  0  0  0  0
  1  2  1  0
  2  3  2  0
  1  4  1  0
  4  5  1  0
  4  6  1  0
  2  7  1  0
  5  8  2  0
  6  9  2  0
  8  9  1  0
  6 10  1  0
  7 11  2  0
  7 12  1  0
  9 13  1  0
 10 14  2  0
 11 15  1  0
 12 16  2  0
 13 17  1  0
 13 18  2  0
 14 18  1  0
 15 19  2  0
 16 19  1  0
 15 20  1  0
 19 21  1  0
 20 22  2  0
 21 23  2  0
 22 23  1  0
M  END
