mac-x0182-diamond-x1018_0_A
     RDKit          3D

 24 27  0  0  0  0  0  0  0  0999 V2000
    1.7020   11.8910   -6.9030 O   0  0  0  0  0  0  0  0  0  0  0  0
    0.7250   11.5920   -6.2560 C   0  0  0  0  0  0  0  0  0  0  0  0
    0.3680   12.1650   -5.0600 N   0  0  0  0  0  0  0  0  0  0  0  0
   -0.2200   10.5210   -6.6500 C   0  0  0  0  0  0  0  0  0  0  0  0
   -0.7780   11.2160   -4.2620 S   0  0  2  0  0  0  0  0  0  0  0  0
   -1.1120   10.2060   -5.6320 C   0  0  0  0  0  0  0  0  0  0  0  0
   -0.2750    9.8550   -7.8660 C   0  0  0  0  0  0  0  0  0  0  0  0
   -1.9350   12.2000   -4.0530 N   0  0  0  0  0  0  0  0  0  0  0  0
   -0.0400   10.4800   -3.2610 O   0  0  0  0  0  0  0  0  0  0  0  0
   -2.0830    9.2350   -5.7620 C   0  0  0  0  0  0  0  0  0  0  0  0
   -1.2550    8.8640   -8.0280 C   0  0  0  0  0  0  0  0  0  0  0  0
   -1.9350   13.1650   -2.9160 C   0  0  0  0  0  0  0  0  0  0  0  0
   -2.1490    8.5590   -6.9830 C   0  0  0  0  0  0  0  0  0  0  0  0
   -2.4880   14.5720   -3.2700 C   0  0  0  0  0  0  0  0  0  0  0  0
   -3.2900   15.2430   -2.2080 N   0  0  0  0  0  0  0  0  0  0  0  0
   -2.8540   14.8460   -0.8700 N   0  0  0  0  0  0  0  0  0  0  0  0
   -4.6880   14.9550   -2.3550 N   0  0  0  0  0  0  0  0  0  0  0  0
   -5.0930   14.3590   -1.1810 N   0  0  0  0  0  0  0  0  0  0  0  0
   -3.9890   14.1530   -0.2580 C   0  0  2  0  0  0  0  0  0  0  0  0
   -6.4160   14.4050   -0.8380 N   0  0  0  0  0  0  0  0  0  0  0  0
   -4.3510   14.6270    1.1030 C   0  0  0  0  0  0  0  0  0  0  0  0
   -6.6630   14.6250    0.4140 C   0  0  0  0  0  0  0  0  0  0  0  0
   -5.6250   14.8530    1.4520 C   0  0  0  0  0  0  0  0  0  0  0  0
   -8.3360   14.6560    0.8620 Cl  0  0  0  0  0  0  0  0  0  0  0  0
  1  2  2  0
  2  3  1  0
  2  4  1  0
  5  3  1  6
  4  6  2  0
  5  6  1  0
  4  7  1  0
  5  8  2  0
  5  9  2  0
  6 10  1  0
  7 11  2  0
  8 12  1  0
 10 13  2  0
 11 13  1  0
 12 14  1  0
 14 15  1  0
 15 16  1  0
 15 17  1  0
 17 18  1  0
 16 19  1  0
 18 19  1  0
 18 20  1  0
 19 21  1  1
 20 22  2  0
 21 23  2  0
 22 23  1  0
 22 24  1  0
M  END
