mac-x0433-mac-x0305
     RDKit          3D

 17 18  0  0  0  0  0  0  0  0999 V2000
   -4.1790   16.2130    0.1320 C   0  0  0  0  0  0  0  0  0  0  0  0
   -4.2460   14.7800    0.3140 C   0  0  1  0  0  0  0  0  0  0  0  0
   -5.5970   14.5300    0.8920 C   0  0  0  0  0  0  0  0  0  0  0  0
   -4.1580   14.3750   -1.0900 N   0  0  0  0  0  0  0  0  0  0  0  0
   -3.0440   14.5430    1.1590 C   0  0  0  0  0  0  0  0  0  0  0  0
   -5.3420   14.7300   -1.7800 C   0  0  0  0  0  0  0  0  0  0  0  0
   -6.6640   14.5780    0.0920 C   0  0  0  0  0  0  0  0  0  0  0  0
   -1.8630   14.2840    0.6330 C   0  0  0  0  0  0  0  0  0  0  0  0
   -2.8710   14.2510   -1.6860 N   0  0  0  0  0  0  0  0  0  0  0  0
   -8.0540   14.3560    0.6180 C   0  0  0  0  0  0  0  0  0  0  0  0
   -5.2050   14.9770   -3.1080 N   0  0  0  0  0  0  0  0  0  0  0  0
   -0.7660   14.1070    1.4480 O   0  0  0  0  0  0  0  0  0  0  0  0
   -6.5430   14.8350   -1.2530 N   0  0  0  0  0  0  0  0  0  0  0  0
   -1.8260   14.2020   -0.8580 C   0  0  0  0  0  0  0  0  0  0  0  0
   -0.4180   14.0110   -1.4320 C   0  0  0  0  0  0  0  0  0  0  0  0
    0.3320   13.2300   -0.6020 O   0  0  0  0  0  0  0  0  0  0  0  0
   -0.0600   14.4920   -2.4970 O   0  0  0  0  0  0  0  0  0  0  0  0
  2  1  1  6
  2  3  1  0
  2  4  1  0
  2  5  1  0
  4  6  1  0
  3  7  2  0
  5  8  2  0
  4  9  1  0
  7 10  1  0
  6 11  1  0
  8 12  1  0
  6 13  2  0
  7 13  1  0
  8 14  1  0
  9 14  2  0
 14 15  1  0
 15 16  1  0
 15 17  2  0
M  END
