mac-x1493-mac-x0496
     RDKit          3D

 23 25  0  0  0  0  0  0  0  0999 V2000
   -1.2870   14.8250   -1.8870 O   0  0  0  0  0  0  0  0  0  0  0  0
   -2.4920   14.8870   -2.4970 C   0  0  0  0  0  0  0  0  0  0  0  0
   -2.5560   15.1690   -3.6800 O   0  0  0  0  0  0  0  0  0  0  0  0
   -3.6400   14.5650   -1.5590 C   0  0  1  0  0  0  0  0  0  0  0  0
   -3.3920   15.1210   -0.1620 C   0  0  0  0  0  0  0  0  0  0  0  0
   -5.0730   14.9590   -1.9780 C   0  0  0  0  0  0  0  0  0  0  0  0
   -4.2990   14.3770    0.8020 C   0  0  2  0  0  0  0  0  0  0  0  0
   -6.0360   14.2930   -1.0630 N   0  0  0  0  0  0  0  0  0  0  0  0
   -7.2570   14.8410   -0.6610 C   0  0  0  0  0  0  0  0  0  0  0  0
   -5.4100   13.5860    0.0470 C   0  0  2  0  0  0  0  0  0  0  0  0
   -4.8580   15.2500    1.8810 C   0  0  0  0  0  0  0  0  0  0  0  0
   -7.5490   14.5100    0.6420 N   0  0  0  0  0  0  0  0  0  0  0  0
   -7.9990   15.5150   -1.3300 O   0  0  0  0  0  0  0  0  0  0  0  0
   -6.4970   13.1160    0.9500 C   0  0  0  0  0  0  0  0  0  0  0  0
   -6.0210   14.9420    2.4640 C   0  0  0  0  0  0  0  0  0  0  0  0
   -8.8520   14.0970    1.1370 C   0  0  0  0  0  0  0  0  0  0  0  0
   -6.7680   13.7760    2.0830 C   0  0  0  0  0  0  0  0  0  0  0  0
   -9.2710   15.2170    1.9890 C   0  0  0  0  0  0  0  0  0  0  0  0
  -10.1510   16.0540    1.3950 O   0  0  0  0  0  0  0  0  0  0  0  0
   -8.9400   15.5630    3.2180 N   0  0  0  0  0  0  0  0  0  0  0  0
   -9.6560   16.7090    3.3850 C   0  0  0  0  0  0  0  0  0  0  0  0
  -10.3930   17.0390    2.3150 N   0  0  0  0  0  0  0  0  0  0  0  0
   -9.6200   17.5200    4.6260 C   0  0  0  0  0  0  0  0  0  0  0  0
  1  2  1  0
  2  3  2  0
  4  2  1  6
  4  5  1  0
  4  6  1  0
  7  5  1  6
  6  8  1  0
  8  9  1  0
  7 10  1  0
  8 10  1  0
  7 11  1  0
  9 12  1  0
  9 13  2  0
 10 14  1  1
 11 15  2  0
 12 16  1  0
 14 17  2  0
 15 17  1  0
 16 18  1  0
 18 19  1  0
 18 20  2  0
 20 21  1  0
 19 22  1  0
 21 22  2  0
 21 23  1  0
M  END
