mac-x0397-diamond-x0905_0_A
     RDKit          3D

 11 12  0  0  0  0  0  0  0  0999 V2000
   -6.5980   15.2860   -2.0810 Cl  0  0  0  0  0  0  0  0  0  0  0  0
   -5.0190   15.0530   -1.4810 C   0  0  0  0  0  0  0  0  0  0  0  0
   -4.8970   14.9030   -0.0870 C   0  0  0  0  0  0  0  0  0  0  0  0
   -3.9130   15.0130   -2.3290 C   0  0  0  0  0  0  0  0  0  0  0  0
   -5.9010   14.9160    0.8770 N   0  0  0  0  0  0  0  0  0  0  0  0
   -3.6090   14.7140    0.4270 C   0  0  0  0  0  0  0  0  0  0  0  0
   -2.6480   14.8200   -1.7850 C   0  0  0  0  0  0  0  0  0  0  0  0
   -5.4010   14.7490    2.0690 C   0  0  0  0  0  0  0  0  0  0  0  0
   -3.7080   14.5590    2.1380 S   0  0  0  0  0  0  0  0  0  0  0  0
   -2.4750   14.6690   -0.4020 C   0  0  0  0  0  0  0  0  0  0  0  0
   -6.1590   14.7240    3.1830 N   0  0  0  0  0  0  0  0  0  0  0  0
  1  2  1  0
  2  3  2  0
  2  4  1  0
  3  5  1  0
  3  6  1  0
  4  7  2  0
  5  8  2  0
  6  9  1  0
  8  9  1  0
  6 10  2  0
  7 10  1  0
  8 11  1  0
M  END
