mac-x0138-diamond-x0574_0_A
     RDKit          3D

 19 21  0  0  0  0  0  0  0  0999 V2000
   -0.5040   13.9810   -3.3920 C   0  0  0  0  0  0  0  0  0  0  0  0
   -1.6820   14.4570   -2.7370 N   0  0  0  0  0  0  0  0  0  0  0  0
   -2.8600   14.7580   -3.3650 C   0  0  0  0  0  0  0  0  0  0  0  0
   -1.8190   14.6890   -1.3950 C   0  0  0  0  0  0  0  0  0  0  0  0
   -3.7560   15.1840   -2.5300 N   0  0  0  0  0  0  0  0  0  0  0  0
   -3.0960   15.1470   -1.3390 C   0  0  0  0  0  0  0  0  0  0  0  0
   -0.8350   14.4850   -0.4730 N   0  0  0  0  0  0  0  0  0  0  0  0
   -3.7570   15.5810   -0.2280 C   0  0  0  0  0  0  0  0  0  0  0  0
   -1.2030   14.3820    0.7880 C   0  0  0  0  0  0  0  0  0  0  0  0
   -4.8860   16.3370   -0.4230 N   0  0  0  0  0  0  0  0  0  0  0  0
   -0.1270   14.2180    1.6750 N   0  0  0  0  0  0  0  0  0  0  0  0
   -2.4940   14.4450    1.4090 N   0  0  0  0  0  0  0  0  0  0  0  0
   -3.4230   15.2970    0.9460 C   0  0  0  0  0  0  0  0  0  0  0  0
   -3.5980   13.5240    1.1270 C   0  0  0  0  0  0  0  0  0  0  0  0
   -4.2990   15.8800    1.8360 C   0  0  0  0  0  0  0  0  0  0  0  0
   -4.9400   13.8070    1.4300 C   0  0  0  0  0  0  0  0  0  0  0  0
   -5.1960   15.0370    2.1000 C   0  0  0  0  0  0  0  0  0  0  0  0
   -6.1200   13.1600    1.2190 O   0  0  0  0  0  0  0  0  0  0  0  0
   -7.2370   13.7700    1.8650 C   0  0  0  0  0  0  0  0  0  0  0  0
  1  2  1  0
  2  3  1  0
  2  4  1  0
  3  5  2  0
  4  6  2  0
  5  6  1  0
  4  7  1  0
  6  8  1  0
  7  9  2  0
  8 10  1  0
  9 11  1  0
  9 12  1  0
  8 13  2  0
 12 13  1  0
 12 14  1  0
 13 15  1  0
 14 16  2  0
 15 17  2  0
 16 17  1  0
 16 18  1  0
 18 19  1  0
M  END
