mac-x0455-mac-x0255
     RDKit          3D

 23 25  0  0  0  0  0  0  0  0999 V2000
   -2.1330   13.0170   -1.8570 C   0  0  0  0  0  0  0  0  0  0  0  0
   -1.1240   13.3970   -2.9150 C   0  0  1  0  0  0  0  0  0  0  0  0
   -1.6960   14.6230   -3.3900 O   0  0  0  0  0  0  0  0  0  0  0  0
    0.3660   13.3360   -2.3390 S   0  0  0  0  0  0  0  0  0  0  0  0
   -1.2590   12.4700   -4.1140 C   0  0  0  0  0  0  0  0  0  0  0  0
    0.3550   14.7090   -1.8030 O   0  0  0  0  0  0  0  0  0  0  0  0
    0.6930   12.9750   -0.7040 O   0  0  0  0  0  0  0  0  0  0  0  0
    0.4490   11.7920   -2.5090 O   0  0  0  0  0  0  0  0  0  0  0  0
    1.5240   13.6970   -3.4880 C   0  0  0  0  0  0  0  0  0  0  0  0
   -2.4090   11.7850   -4.3740 C   0  0  0  0  0  0  0  0  0  0  0  0
   -0.1710   12.3170   -4.9590 C   0  0  0  0  0  0  0  0  0  0  0  0
   -2.4960   10.9440   -5.4620 C   0  0  0  0  0  0  0  0  0  0  0  0
   -0.2740   11.4760   -6.0400 C   0  0  0  0  0  0  0  0  0  0  0  0
    0.7870   14.7850   -4.1590 C   0  0  0  0  0  0  0  0  0  0  0  0
   -1.4220   10.7730   -6.3190 C   0  0  0  0  0  0  0  0  0  0  0  0
    1.1050   16.0580   -4.3790 C   0  0  0  0  0  0  0  0  0  0  0  0
   -0.7850   14.6860   -4.8080 S   0  0  0  0  0  0  0  0  0  0  0  0
    0.1870   16.8390   -4.9620 C   0  0  0  0  0  0  0  0  0  0  0  0
   -1.0120   16.2770   -5.2880 C   0  0  0  0  0  0  0  0  0  0  0  0
    0.2960   18.1850   -5.2770 C   0  0  0  0  0  0  0  0  0  0  0  0
   -2.0660   16.9630   -5.8660 C   0  0  0  0  0  0  0  0  0  0  0  0
   -0.7360   18.8650   -5.8530 C   0  0  0  0  0  0  0  0  0  0  0  0
   -1.9420   18.2880   -6.1610 C   0  0  0  0  0  0  0  0  0  0  0  0
  2  1  1  1
  2  3  1  0
  2  4  1  0
  2  5  1  0
  4  6  2  0
  4  7  1  0
  4  8  1  0
  4  9  1  0
  5 10  2  0
  5 11  1  0
 10 12  1  0
 11 13  2  0
  9 14  1  0
 12 15  2  0
 13 15  1  0
 14 16  2  0
 14 17  1  0
 16 18  1  0
 17 19  1  0
 18 19  2  0
 18 20  1  0
 19 21  1  0
 20 22  2  0
 21 23  2  0
 22 23  1  0
M  END
