mac-x0394-diamond-x0724_0_A
     RDKit          3D

 28 30  0  0  0  0  0  0  0  0999 V2000
    0.9830   18.2950   -4.9570 Cl  0  0  0  0  0  0  0  0  0  0  0  0
    0.2650   16.7590   -4.9110 C   0  0  0  0  0  0  0  0  0  0  0  0
   -1.0930   16.6650   -5.1580 C   0  0  0  0  0  0  0  0  0  0  0  0
    1.0350   15.6340   -4.6360 C   0  0  0  0  0  0  0  0  0  0  0  0
    0.4340   14.3760   -4.6100 C   0  0  0  0  0  0  0  0  0  0  0  0
   -1.7190   15.4250   -5.1410 C   0  0  0  0  0  0  0  0  0  0  0  0
   -3.1990   15.3350   -5.4220 C   0  0  0  0  0  0  0  0  0  0  0  0
    1.2460   13.1370   -4.3150 C   0  0  0  0  0  0  0  0  0  0  0  0
   -0.9450   14.2850   -4.8650 C   0  0  0  0  0  0  0  0  0  0  0  0
    0.8440   12.4700   -3.0170 C   0  0  0  0  0  0  0  0  0  0  0  0
   -4.0560   15.0700   -4.1870 C   0  0  0  0  0  0  0  0  0  0  0  0
    0.2110   11.2960   -3.2250 O   0  0  0  0  0  0  0  0  0  0  0  0
    1.0340   12.8820   -1.8860 O   0  0  0  0  0  0  0  0  0  0  0  0
   -3.5980   13.8870   -3.3510 C   0  0  0  0  0  0  0  0  0  0  0  0
   -3.6600   14.2640   -1.8970 C   0  0  0  0  0  0  0  0  0  0  0  0
   -2.5040   14.5770   -1.1860 C   0  0  0  0  0  0  0  0  0  0  0  0
   -4.9040   14.2980   -1.2530 C   0  0  0  0  0  0  0  0  0  0  0  0
   -2.5850   14.9200    0.1660 C   0  0  0  0  0  0  0  0  0  0  0  0
   -4.9870   14.6410    0.1010 C   0  0  0  0  0  0  0  0  0  0  0  0
   -6.2340   14.6800    0.7710 N   0  0  0  0  0  0  0  0  0  0  0  0
   -3.8200   14.9520    0.8070 C   0  0  0  0  0  0  0  0  0  0  0  0
   -7.4210   14.5680    0.1180 N   0  0  0  0  0  0  0  0  0  0  0  0
   -6.4300   14.8370    2.1220 C   0  0  0  0  0  0  0  0  0  0  0  0
   -7.7840   14.8370    2.3680 C   0  0  0  0  0  0  0  0  0  0  0  0
   -8.3410   14.6630    1.0820 C   0  0  0  0  0  0  0  0  0  0  0  0
   -8.4940   14.9870    3.6660 C   0  0  0  0  0  0  0  0  0  0  0  0
   -8.3030   13.7710    4.4640 N   0  0  0  0  0  0  0  0  0  0  0  0
   -8.7100   14.0110    5.8530 C   0  0  0  0  0  0  0  0  0  0  0  0
  1  2  1  0
  2  3  2  0
  2  4  1  0
  4  5  2  0
  3  6  1  0
  6  7  1  0
  5  8  1  0
  5  9  1  0
  6  9  2  0
  8 10  1  0
  7 11  1  0
 10 12  1  0
 10 13  2  0
 11 14  1  0
 14 15  1  0
 15 16  2  0
 15 17  1  0
 16 18  1  0
 17 19  2  0
 19 20  1  0
 18 21  2  0
 19 21  1  0
 20 22  1  0
 20 23  1  0
 23 24  2  0
 22 25  2  0
 24 25  1  0
 24 26  1  0
 26 27  1  0
 27 28  1  0
M  END
