mac-x0204-mac-x0373
     RDKit          3D

 17 18  0  0  0  0  0  0  0  0999 V2000
    0.2200   13.0510   -2.0590 O   0  0  0  0  0  0  0  0  0  0  0  0
   -0.1110   14.2950   -2.6590 C   0  0  0  0  0  0  0  0  0  0  0  0
    1.1350   14.7580   -3.1620 O   0  0  0  0  0  0  0  0  0  0  0  0
   -0.5750   15.3610   -1.6550 C   0  0  0  0  0  0  0  0  0  0  0  0
   -1.1090   14.1750   -3.7750 C   0  0  0  0  0  0  0  0  0  0  0  0
   -1.5460   15.3170   -4.4490 C   0  0  0  0  0  0  0  0  0  0  0  0
   -1.6470   12.9540   -4.1760 C   0  0  0  0  0  0  0  0  0  0  0  0
   -2.0100   15.3960   -1.1700 C   0  0  0  0  0  0  0  0  0  0  0  0
   -2.4760   15.2090   -5.4630 C   0  0  0  0  0  0  0  0  0  0  0  0
   -2.5600   12.8140   -5.1670 N   0  0  0  0  0  0  0  0  0  0  0  0
   -3.1160   15.6050   -2.0160 C   0  0  0  0  0  0  0  0  0  0  0  0
   -2.2330   15.2210    0.1960 C   0  0  0  0  0  0  0  0  0  0  0  0
   -2.8660   16.3570   -6.0900 O   0  0  0  0  0  0  0  0  0  0  0  0
   -2.9550   13.9500   -5.7890 C   0  0  0  0  0  0  0  0  0  0  0  0
   -4.4090   15.6390   -1.4890 C   0  0  0  0  0  0  0  0  0  0  0  0
   -3.5190   15.2560    0.7190 C   0  0  0  0  0  0  0  0  0  0  0  0
   -4.6070   15.4660   -0.1230 C   0  0  0  0  0  0  0  0  0  0  0  0
  2  1  1  0
  2  3  1  0
  2  4  1  0
  2  5  1  0
  5  6  2  0
  5  7  1  0
  4  8  1  0
  6  9  1  0
  7 10  2  0
  8 11  2  0
  8 12  1  0
  9 13  1  0
  9 14  2  0
 10 14  1  0
 11 15  1  0
 12 16  2  0
 15 17  2  0
 16 17  1  0
M  END
