mac-x0137-mac-x0206
     RDKit          3D

 25 28  0  0  0  0  0  0  0  0999 V2000
   -2.8650   12.6360   -4.0980 F   0  0  0  0  0  0  0  0  0  0  0  0
   -1.8610   13.4320   -4.5540 C   0  0  2  0  0  0  0  0  0  0  0  0
   -0.6470   12.5500   -4.8660 C   0  0  0  0  0  0  0  0  0  0  0  0
   -1.5700   14.5100   -3.5050 C   0  0  0  0  0  0  0  0  0  0  0  0
   -0.9390   13.8800   -2.3340 N   0  0  0  0  0  0  0  0  0  0  0  0
    0.0540   12.0530   -3.6010 C   0  0  0  0  0  0  0  0  0  0  0  0
    0.3310   13.2000   -2.6380 C   0  0  0  0  0  0  0  0  0  0  0  0
   -1.2210   14.2420   -1.0250 C   0  0  0  0  0  0  0  0  0  0  0  0
   -0.1350   14.0890   -0.1960 N   0  0  0  0  0  0  0  0  0  0  0  0
   -2.3460   14.7190   -0.4190 C   0  0  0  0  0  0  0  0  0  0  0  0
   -0.2520   14.1610    1.1540 C   0  0  0  0  0  0  0  0  0  0  0  0
   -2.2230   15.0110    1.0420 C   0  0  0  0  0  0  0  0  0  0  0  0
   -3.7190   15.1230   -0.5720 C   0  0  0  0  0  0  0  0  0  0  0  0
   -1.2160   14.6180    1.8040 N   0  0  0  0  0  0  0  0  0  0  0  0
   -3.1990   15.6590    1.5420 N   0  0  0  0  0  0  0  0  0  0  0  0
   -4.0810   15.6890    0.5570 C   0  0  0  0  0  0  0  0  0  0  0  0
   -4.8090   15.0420   -1.4700 C   0  0  0  0  0  0  0  0  0  0  0  0
   -4.8540   15.0850   -2.6870 O   0  0  0  0  0  0  0  0  0  0  0  0
   -5.9970   14.8840   -0.5850 C   0  0  0  0  0  0  0  0  0  0  0  0
   -7.3050   14.8800   -1.0050 C   0  0  0  0  0  0  0  0  0  0  0  0
   -5.7190   14.7310    0.8030 C   0  0  0  0  0  0  0  0  0  0  0  0
   -7.5730   15.0130   -2.3310 O   0  0  0  0  0  0  0  0  0  0  0  0
   -8.3460   14.7350   -0.0760 C   0  0  0  0  0  0  0  0  0  0  0  0
   -6.7550   14.5880    1.7290 C   0  0  0  0  0  0  0  0  0  0  0  0
   -8.0660   14.5920    1.2890 C   0  0  0  0  0  0  0  0  0  0  0  0
  2  1  1  1
  2  3  1  0
  2  4  1  0
  4  5  1  0
  3  6  1  0
  5  7  1  0
  6  7  1  0
  5  8  1  0
  8  9  1  0
  8 10  2  0
  9 11  1  0
 10 12  1  0
 10 13  1  0
 11 14  2  0
 12 14  1  0
 12 15  2  0
 13 16  2  0
 15 16  1  0
 13 17  1  0
 17 18  2  0
 17 19  1  0
 19 20  2  0
 19 21  1  0
 20 22  1  0
 20 23  1  0
 21 24  2  0
 23 25  2  0
 24 25  1  0
M  END
