mac-x0564-diamond-x0722_0_A
     RDKit          3D

 25 28  0  0  0  0  0  0  0  0999 V2000
    0.9400   14.7790   -1.7320 O   0  0  0  0  0  0  0  0  0  0  0  0
    0.1810   14.6380   -2.6880 C   0  0  0  0  0  0  0  0  0  0  0  0
    0.6110   14.3290   -3.9660 N   0  0  0  0  0  0  0  0  0  0  0  0
   -1.2530   14.7360   -2.6340 C   0  0  0  0  0  0  0  0  0  0  0  0
   -2.1090   14.7950   -3.7030 C   0  0  0  0  0  0  0  0  0  0  0  0
   -0.2430   14.4120   -4.9440 C   0  0  0  0  0  0  0  0  0  0  0  0
   -1.9440   14.7690   -1.5050 O   0  0  0  0  0  0  0  0  0  0  0  0
   -1.5820   14.7750   -4.9300 N   0  0  0  0  0  0  0  0  0  0  0  0
   -3.2520   14.8250   -1.8610 C   0  0  0  0  0  0  0  0  0  0  0  0
   -3.4350   14.8530   -3.1990 C   0  0  0  0  0  0  0  0  0  0  0  0
   -4.7650   14.9180   -3.6370 C   0  0  0  0  0  0  0  0  0  0  0  0
   -4.1880   14.8340   -0.9200 C   0  0  0  0  0  0  0  0  0  0  0  0
   -5.8020   14.9330   -2.6690 C   0  0  0  0  0  0  0  0  0  0  0  0
   -5.5200   14.8800   -1.2940 C   0  0  0  0  0  0  0  0  0  0  0  0
   -3.3990   14.7760    0.2120 C   0  0  0  0  0  0  0  0  0  0  0  0
   -3.4710   15.1720    1.5240 C   0  0  0  0  0  0  0  0  0  0  0  0
   -2.1520   14.1880    0.0680 C   0  0  0  0  0  0  0  0  0  0  0  0
   -6.6720   14.8580   -0.3990 C   0  0  0  0  0  0  0  0  0  0  0  0
   -4.5010   15.8450    2.2690 C   0  0  0  0  0  0  0  0  0  0  0  0
   -1.4410   13.5460   -1.0680 C   0  0  0  0  0  0  0  0  0  0  0  0
   -2.3640   14.8680    2.1270 N   0  0  0  0  0  0  0  0  0  0  0  0
   -1.5760   14.2980    1.2510 N   0  0  0  0  0  0  0  0  0  0  0  0
   -7.6180   15.6050   -0.5700 O   0  0  0  0  0  0  0  0  0  0  0  0
   -6.6490   13.9340    0.6010 N   0  0  0  0  0  0  0  0  0  0  0  0
   -0.2520   13.8770    1.6030 C   0  0  0  0  0  0  0  0  0  0  0  0
  1  2  2  0
  2  3  1  0
  2  4  1  0
  4  5  2  0
  3  6  2  0
  4  7  1  0
  5  8  1  0
  6  8  1  0
  7  9  1  0
  5 10  1  0
  9 10  2  0
 10 11  1  0
  9 12  1  0
 11 13  2  0
 12 14  2  0
 13 14  1  0
 12 15  1  0
 15 16  1  0
 15 17  2  0
 14 18  1  0
 16 19  1  0
 17 20  1  0
 16 21  2  0
 17 22  1  0
 21 22  1  0
 18 23  2  0
 18 24  1  0
 22 25  1  0
M  END
