mac-x0576-diamond-x0727_0_A
     RDKit          3D

 28 30  0  0  0  0  0  0  0  0999 V2000
    0.1650   14.5940    1.5890 N   0  0  0  0  0  0  0  0  0  0  0  0
   -0.8500   14.3520    0.6440 C   0  0  1  0  0  0  0  0  0  0  0  0
   -1.9940   14.7840    1.3730 N   0  0  0  0  0  0  0  0  0  0  0  0
   -0.7010   14.9150   -0.6390 N   0  0  0  0  0  0  0  0  0  0  0  0
   -1.7970   14.9500   -1.4520 C   0  0  0  0  0  0  0  0  0  0  0  0
   -3.1550   14.3220    0.6650 C   0  0  2  0  0  0  0  0  0  0  0  0
   -1.6230   15.2200   -2.7050 N   0  0  0  0  0  0  0  0  0  0  0  0
   -3.1840   14.6490   -0.8610 C   0  0  1  0  0  0  0  0  0  0  0  0
   -4.2980   14.8630    1.3430 N   0  0  0  0  0  0  0  0  0  0  0  0
   -0.3180   15.4650   -3.2880 C   0  0  0  0  0  0  0  0  0  0  0  0
   -5.4910   15.0130    0.6690 C   0  0  0  0  0  0  0  0  0  0  0  0
   -4.0890   15.7270   -1.2890 N   0  0  0  0  0  0  0  0  0  0  0  0
   -6.5490   14.7620    1.2330 O   0  0  0  0  0  0  0  0  0  0  0  0
   -0.2970   14.7540   -4.6420 C   0  0  0  0  0  0  0  0  0  0  0  0
   -5.4470   15.5070   -0.7840 C   0  0  0  0  0  0  0  0  0  0  0  0
    0.9310   13.8990   -4.9840 C   0  0  0  0  0  0  0  0  0  0  0  0
    0.9430   12.3740   -4.7460 C   0  0  2  0  0  0  0  0  0  0  0  0
    0.1050   11.5830   -5.6480 N   0  0  0  0  0  0  0  0  0  0  0  0
    0.7530   11.9170   -3.3020 C   0  0  0  0  0  0  0  0  0  0  0  0
    0.0800   10.9690   -2.9180 O   0  0  0  0  0  0  0  0  0  0  0  0
    0.6950   11.1450   -6.8010 C   0  0  0  0  0  0  0  0  0  0  0  0
    1.4350   12.6740   -2.4210 O   0  0  0  0  0  0  0  0  0  0  0  0
    1.6850   11.6860   -7.2100 O   0  0  0  0  0  0  0  0  0  0  0  0
    0.0780    9.9400   -7.5040 C   0  0  0  0  0  0  0  0  0  0  0  0
   -1.2330   10.3330   -8.1890 C   0  0  0  0  0  0  0  0  0  0  0  0
   -0.2630    8.7730   -6.5580 C   0  0  0  0  0  0  0  0  0  0  0  0
   -2.1440    9.1290   -8.0090 C   0  0  0  0  0  0  0  0  0  0  0  0
   -1.7680    8.5760   -6.6460 C   0  0  0  0  0  0  0  0  0  0  0  0
  2  1  1  1
  2  3  1  0
  2  4  1  0
  4  5  1  0
  6  3  1  1
  5  7  2  3
  5  8  1  0
  6  8  1  0
  6  9  1  0
  7 10  1  0
  9 11  1  0
  8 12  1  1
 11 13  2  0
 10 14  1  0
 11 15  1  0
 12 15  1  0
 14 16  1  0
 17 16  1  1
 17 18  1  0
 17 19  1  0
 19 20  2  0
 18 21  1  0
 19 22  1  0
 21 23  2  0
 21 24  1  0
 24 25  1  0
 24 26  1  0
 25 27  1  0
 26 28  1  0
 27 28  1  0
M  END
