mac-x0380-mac-x0231
     RDKit          3D

 29 32  0  0  0  0  0  0  0  0999 V2000
   -2.2720   14.7470   -2.7460 O   0  0  0  0  0  0  0  0  0  0  0  0
   -3.5650   15.0220   -3.0080 C   0  0  0  0  0  0  0  0  0  0  0  0
   -3.8460   15.1490   -4.2800 N   0  0  0  0  0  0  0  0  0  0  0  0
   -4.1840   15.0520   -1.7160 C   0  0  0  0  0  0  0  0  0  0  0  0
   -5.5440   15.0450   -1.6480 C   0  0  0  0  0  0  0  0  0  0  0  0
   -3.3780   15.0610   -0.5620 C   0  0  0  0  0  0  0  0  0  0  0  0
   -2.5870   14.8410   -4.5100 C   0  0  0  0  0  0  0  0  0  0  0  0
   -6.1490   15.0280   -0.4150 C   0  0  0  0  0  0  0  0  0  0  0  0
   -3.9810   15.0490    0.6900 C   0  0  0  0  0  0  0  0  0  0  0  0
   -1.6640   15.8370   -4.5590 C   0  0  0  0  0  0  0  0  0  0  0  0
   -2.2760   13.4920   -4.6030 C   0  0  0  0  0  0  0  0  0  0  0  0
   -5.3760   15.0240    0.7620 C   0  0  0  0  0  0  0  0  0  0  0  0
   -7.9140   15.0000   -0.4000 S   0  0  0  0  0  0  0  0  0  0  0  0
   -0.3590   15.4630   -4.6330 C   0  0  0  0  0  0  0  0  0  0  0  0
   -0.9640   13.1190   -4.6840 C   0  0  0  0  0  0  0  0  0  0  0  0
   -5.9830   14.9890    2.0290 N   0  0  0  0  0  0  0  0  0  0  0  0
   -8.0680   14.0410    1.1080 C   0  0  0  0  0  0  0  0  0  0  0  0
   -0.0070   14.1200   -4.6630 C   0  0  0  0  0  0  0  0  0  0  0  0
    0.6670   16.4850   -4.6420 C   0  0  0  0  0  0  0  0  0  0  0  0
    0.4130   17.6650   -4.8720 O   0  0  0  0  0  0  0  0  0  0  0  0
   -7.2950   14.6640    2.2380 C   0  0  0  0  0  0  0  0  0  0  0  0
    1.4060   13.8030   -4.6220 C   0  0  0  0  0  0  0  0  0  0  0  0
    1.9010   16.0040   -4.3690 N   0  0  0  0  0  0  0  0  0  0  0  0
   -7.8330   14.8940    3.3240 O   0  0  0  0  0  0  0  0  0  0  0  0
    1.8310   12.3670   -4.6230 C   0  0  0  0  0  0  0  0  0  0  0  0
    2.2990   14.7100   -4.4560 N   0  0  0  0  0  0  0  0  0  0  0  0
    1.4330   11.8430   -3.2620 C   0  0  0  0  0  0  0  0  0  0  0  0
    0.9860   10.5770   -3.2250 O   0  0  0  0  0  0  0  0  0  0  0  0
    1.4970   12.5070   -2.2380 O   0  0  0  0  0  0  0  0  0  0  0  0
  1  2  1  0
  2  3  2  3
  2  4  1  0
  4  5  2  0
  4  6  1  0
  3  7  1  0
  5  8  1  0
  6  9  2  0
  7 10  2  0
  7 11  1  0
  8 12  2  0
  9 12  1  0
  8 13  1  0
 10 14  1  0
 11 15  2  0
 12 16  1  0
 13 17  1  0
 14 18  2  0
 15 18  1  0
 14 19  1  0
 19 20  2  0
 16 21  1  0
 17 21  1  0
 18 22  1  0
 19 23  1  0
 21 24  2  0
 22 25  1  0
 22 26  2  0
 23 26  1  0
 25 27  1  0
 27 28  1  0
 27 29  2  0
M  END
