mac-x0345-mac-x0567
     RDKit          3D

 14 15  0  0  0  0  0  0  0  0999 V2000
   -7.3420   13.6920    0.7110 C   0  0  0  0  0  0  0  0  0  0  0  0
   -6.3570   14.6270    0.0020 C   0  0  2  0  0  0  0  0  0  0  0  0
   -6.0120   14.2070   -1.3530 N   0  0  0  0  0  0  0  0  0  0  0  0
   -5.0990   15.0550    0.7880 C   0  0  1  0  0  0  0  0  0  0  0  0
   -5.1800   14.7000    2.7190 Br  0  0  0  0  0  0  0  0  0  0  0  0
   -3.6990   14.9880    0.1570 C   0  0  1  0  0  0  0  0  0  0  0  0
   -5.1900   15.1920   -1.9880 C   0  0  2  0  0  0  0  0  0  0  0  0
   -5.1300   14.7910   -3.3670 N   0  0  0  0  0  0  0  0  0  0  0  0
   -3.8190   15.4260   -1.3360 C   0  0  0  0  0  0  0  0  0  0  0  0
   -2.8620   15.8730    1.0310 N   0  0  0  0  0  0  0  0  0  0  0  0
   -2.8270   13.7300    0.2760 C   0  0  0  0  0  0  0  0  0  0  0  0
   -1.4130   14.3210    0.2320 C   0  0  1  0  0  0  0  0  0  0  0  0
   -1.5310   15.2970    1.2560 N   0  0  0  0  0  0  0  0  0  0  0  0
   -0.3210   13.4430    0.5830 N   0  0  0  0  0  0  0  0  0  0  0  0
  2  1  1  1
  2  3  1  0
  2  4  1  0
  4  5  1  1
  4  6  1  0
  3  7  1  0
  7  8  1  6
  6  9  1  6
  7  9  1  0
  6 10  1  0
  6 11  1  0
 11 12  1  0
 10 13  1  0
 12 13  1  0
 12 14  1  1
M  END
