mac-x0283-mac-x0180
     RDKit          3D

 17 18  0  0  0  0  0  0  0  0999 V2000
   -8.0000   15.0320    0.6410 N   0  0  0  0  0  0  0  0  0  0  0  0
   -7.2640   15.0920   -0.5020 C   0  0  0  0  0  0  0  0  0  0  0  0
   -7.8210   15.2330   -1.6870 N   0  0  0  0  0  0  0  0  0  0  0  0
   -5.8400   15.0160   -0.6000 C   0  0  0  0  0  0  0  0  0  0  0  0
   -6.7670   15.2520   -2.5830 O   0  0  0  0  0  0  0  0  0  0  0  0
   -5.5890   15.1220   -1.9340 C   0  0  0  0  0  0  0  0  0  0  0  0
   -4.7740   14.8690    0.2760 C   0  0  0  0  0  0  0  0  0  0  0  0
   -5.2630   14.7680    1.5700 N   0  0  0  0  0  0  0  0  0  0  0  0
   -4.3230   15.0940   -2.5070 C   0  0  0  0  0  0  0  0  0  0  0  0
   -3.4490   14.8330   -0.2340 C   0  0  0  0  0  0  0  0  0  0  0  0
   -6.4900   14.1630    1.7410 C   0  0  0  0  0  0  0  0  0  0  0  0
   -3.2320   14.9420   -1.6350 C   0  0  0  0  0  0  0  0  0  0  0  0
   -7.2590   14.6490    2.9480 C   0  0  0  0  0  0  0  0  0  0  0  0
   -6.9570   13.3030    0.9930 O   0  0  0  0  0  0  0  0  0  0  0  0
   -1.8730   14.8990   -2.2850 C   0  0  0  0  0  0  0  0  0  0  0  0
   -1.7370   14.9330   -3.5010 O   0  0  0  0  0  0  0  0  0  0  0  0
   -0.8150   14.8310   -1.4490 O   0  0  0  0  0  0  0  0  0  0  0  0
  1  2  1  0
  2  3  2  0
  2  4  1  0
  3  5  1  0
  4  6  2  0
  5  6  1  0
  4  7  1  0
  7  8  1  0
  6  9  1  0
  7 10  2  0
  8 11  1  0
  9 12  2  0
 10 12  1  0
 11 13  1  0
 11 14  2  0
 12 15  1  0
 15 16  2  0
 15 17  1  0
M  END
