mac-x0163-diamond-x0962_2_B
     RDKit          3D

 26 29  0  0  0  0  0  0  0  0999 V2000
   -3.7850   15.0890   -1.8610 Cl  0  0  0  0  0  0  0  0  0  0  0  0
   -2.4850   14.8090   -0.7430 C   0  0  0  0  0  0  0  0  0  0  0  0
   -2.6790   15.1590    0.5870 C   0  0  0  0  0  0  0  0  0  0  0  0
   -1.2560   14.2610   -1.1180 C   0  0  0  0  0  0  0  0  0  0  0  0
   -3.9320   15.7360    0.9300 N   0  0  0  0  0  0  0  0  0  0  0  0
   -0.2900   14.0680   -0.1960 N   0  0  0  0  0  0  0  0  0  0  0  0
   -1.7090   14.9670    1.5190 N   0  0  0  0  0  0  0  0  0  0  0  0
   -0.9890   13.9020   -2.4530 N   0  0  0  0  0  0  0  0  0  0  0  0
   -4.5840   15.1510    2.0680 C   0  0  0  0  0  0  0  0  0  0  0  0
   -0.5620   14.4270    1.0720 C   0  0  0  0  0  0  0  0  0  0  0  0
    0.0370   12.8600   -2.6840 C   0  0  0  0  0  0  0  0  0  0  0  0
   -1.0020   15.0520   -3.3560 C   0  0  0  0  0  0  0  0  0  0  0  0
   -5.9240   14.4100    1.7630 C   0  0  0  0  0  0  0  0  0  0  0  0
    1.0620   13.1890   -3.7970 C   0  0  0  0  0  0  0  0  0  0  0  0
   -0.8730   14.5880   -4.7830 C   0  0  0  0  0  0  0  0  0  0  0  0
    2.4040   13.7980   -3.2590 C   0  0  0  0  0  0  0  0  0  0  0  0
    1.8810   11.9300   -4.2160 C   0  0  0  0  0  0  0  0  0  0  0  0
    0.4640   13.9010   -5.0430 C   0  0  0  0  0  0  0  0  0  0  0  0
   -7.1310   14.9030    2.4680 N   0  0  0  0  0  0  0  0  0  0  0  0
   -7.3560   15.2860    3.7890 C   0  0  0  0  0  0  0  0  0  0  0  0
   -8.2910   15.0610    1.8100 C   0  0  0  0  0  0  0  0  0  0  0  0
    3.1970   12.6680   -3.9450 C   0  0  0  0  0  0  0  0  0  0  0  0
   -9.1770   15.5490    2.7030 C   0  0  0  0  0  0  0  0  0  0  0  0
   -8.6120   15.6900    3.9530 N   0  0  0  0  0  0  0  0  0  0  0  0
  -10.5090   15.8730    2.3600 C   0  0  0  0  0  0  0  0  0  0  0  0
  -11.5620   16.1520    1.9820 N   0  0  0  0  0  0  0  0  0  0  0  0
  1  2  1  0
  2  3  2  0
  2  4  1  0
  3  5  1  0
  4  6  2  0
  3  7  1  0
  4  8  1  0
  5  9  1  0
  6 10  1  0
  7 10  2  0
  8 11  1  0
  8 12  1  0
  9 13  1  0
 14 11  1  0
 12 15  1  0
 14 16  1  0
 14 17  1  0
 14 18  1  0
 15 18  1  0
 13 19  1  0
 19 20  1  0
 19 21  1  0
 16 22  1  0
 17 22  1  0
 21 23  2  0
 20 24  2  0
 23 24  1  0
 23 25  1  0
 25 26  3  0
M  END
