mac-x0397-diamond-x0724_0_A
     RDKit          3D

 17 19  0  0  0  0  0  0  0  0999 V2000
   -7.3410   16.0380   -1.4880 Cl  0  0  0  0  0  0  0  0  0  0  0  0
   -6.6290   14.5550   -0.8110 C   0  0  2  0  0  0  0  0  0  0  0  0
   -5.3280   14.3770   -1.6530 C   0  0  0  0  0  0  0  0  0  0  0  0
   -7.6770   13.6000   -1.1680 N   0  0  0  0  0  0  0  0  0  0  0  0
   -6.9810   14.4460    0.7940 C   0  0  2  0  0  0  0  0  0  0  0  0
   -6.3860   13.6500    1.8130 N   0  0  0  0  0  0  0  0  0  0  0  0
   -4.0210   14.3830   -1.3250 C   0  0  0  0  0  0  0  0  0  0  0  0
   -8.4700   14.4580    0.7610 C   0  0  0  0  0  0  0  0  0  0  0  0
   -8.8030   13.9450   -0.4160 C   0  0  0  0  0  0  0  0  0  0  0  0
   -7.3770   13.4050    2.9510 N   0  0  0  0  0  0  0  0  0  0  0  0
   -5.3010   14.4910    2.1100 C   0  0  1  0  0  0  0  0  0  0  0  0
   -3.5200   14.5580    0.0500 C   0  0  0  0  0  0  0  0  0  0  0  0
   -7.2850   14.3010    4.1270 C   0  0  0  0  0  0  0  0  0  0  0  0
   -4.1460   14.1480    2.7980 N   0  0  0  0  0  0  0  0  0  0  0  0
   -4.5410   15.2460    0.9380 C   0  0  2  0  0  0  0  0  0  0  0  0
   -3.8910   16.1470    1.8860 C   0  0  0  0  0  0  0  0  0  0  0  0
   -3.7120   15.3930    2.9750 C   0  0  0  0  0  0  0  0  0  0  0  0
  2  1  1  6
  2  3  1  0
  2  4  1  0
  2  5  1  0
  5  6  1  0
  3  7  2  0
  5  8  1  6
  4  9  1  0
  8  9  2  0
  6 10  1  0
  6 11  1  0
  7 12  1  0
 10 13  1  0
 11 14  1  6
 11 15  1  0
 15 12  1  1
 15 16  1  0
 14 17  1  0
 16 17  2  0
M  END
