mac-x0282-diamond-x0837_0_A
     RDKit          3D

 11 12  0  0  0  0  0  0  0  0999 V2000
   -5.7770   14.9850   -0.1410 O   0  0  0  0  0  0  0  0  0  0  0  0
   -4.5440   14.9160    0.0030 C   0  0  0  0  0  0  0  0  0  0  0  0
   -3.5200   14.8420   -1.0970 C   0  0  0  0  0  0  0  0  0  0  0  0
   -3.8640   14.8700    1.2000 N   0  0  0  0  0  0  0  0  0  0  0  0
   -3.8880   14.8530   -3.0510 I   0  0  0  0  0  0  0  0  0  0  0  0
   -2.3300   14.7580   -0.5400 C   0  0  0  0  0  0  0  0  0  0  0  0
   -2.6230   14.7600    0.8780 C   0  0  0  0  0  0  0  0  0  0  0  0
   -0.9900   14.6740   -1.0310 C   0  0  0  0  0  0  0  0  0  0  0  0
   -1.5980   14.6320    1.7610 N   0  0  0  0  0  0  0  0  0  0  0  0
   -0.0010   14.5740   -0.1440 C   0  0  0  0  0  0  0  0  0  0  0  0
   -0.3980   14.5510    1.2890 C   0  0  0  0  0  0  0  0  0  0  0  0
  1  2  2  0
  2  3  1  0
  2  4  1  0
  3  5  1  0
  3  6  2  0
  4  7  2  0
  6  7  1  0
  6  8  1  0
  7  9  1  0
  8 10  2  0
  9 11  2  0
 10 11  1  0
M  END
