mac-x0193-diamond-x0855_0_A
     RDKit          3D

 20 21  0  0  0  0  0  0  0  0999 V2000
   -0.1150   11.5270   -2.3650 O   0  0  0  0  0  0  0  0  0  0  0  0
    0.4430   12.3170   -3.3120 C   0  0  0  0  0  0  0  0  0  0  0  0
    1.0520   13.3320   -3.0070 O   0  0  0  0  0  0  0  0  0  0  0  0
    0.2620   11.8000   -4.7460 C   0  0  2  0  0  0  0  0  0  0  0  0
    0.6660   12.5870   -5.8660 N   0  0  0  0  0  0  0  0  0  0  0  0
   -0.9490   11.1510   -5.0800 N   0  0  0  0  0  0  0  0  0  0  0  0
    1.1550   11.7320   -6.8100 C   0  0  0  0  0  0  0  0  0  0  0  0
   -0.9840   10.0710   -5.8880 C   0  0  0  0  0  0  0  0  0  0  0  0
   -2.1600   11.5670   -4.6290 N   0  0  0  0  0  0  0  0  0  0  0  0
    2.3100   11.5220   -6.7750 O   0  0  0  0  0  0  0  0  0  0  0  0
    0.2180   11.1730   -7.6870 N   0  0  0  0  0  0  0  0  0  0  0  0
   -2.2760    9.7440   -5.9930 C   0  0  0  0  0  0  0  0  0  0  0  0
   -2.9800   10.6770   -5.2100 C   0  0  0  0  0  0  0  0  0  0  0  0
   -2.9770    8.3350   -6.9850 Br  0  0  0  0  0  0  0  0  0  0  0  0
    0.3960   10.1190   -8.7390 C   0  0  0  0  0  0  0  0  0  0  0  0
    1.2970    8.9160   -8.3750 C   0  0  0  0  0  0  0  0  0  0  0  0
    0.7530   10.6980  -10.1080 C   0  0  0  0  0  0  0  0  0  0  0  0
    1.9250    8.1720   -9.5790 C   0  0  0  0  0  0  0  0  0  0  0  0
    0.7210    9.6680  -11.2490 C   0  0  0  0  0  0  0  0  0  0  0  0
    1.0780    8.2370  -10.8400 C   0  0  0  0  0  0  0  0  0  0  0  0
  1  2  1  0
  2  3  2  0
  2  4  1  0
  4  5  1  6
  4  6  1  0
  5  7  1  0
  6  8  1  0
  6  9  1  0
  7 10  2  0
  7 11  1  0
  8 12  2  0
  9 13  2  0
 12 13  1  0
 12 14  1  0
 11 15  1  0
 15 16  1  0
 15 17  1  0
 16 18  1  0
 17 19  1  0
 18 20  1  0
 19 20  1  0
M  END
