mac-x0224-mac-x0441
     RDKit          3D

 27 29  0  0  0  0  0  0  0  0999 V2000
   -4.6860   15.2380    1.2160 C   0  0  0  0  0  0  0  0  0  0  0  0
   -2.9250   14.8400    1.0690 S   0  0  0  0  0  0  0  0  0  0  0  0
   -2.6960   14.7690   -0.7060 C   0  0  0  0  0  0  0  0  0  0  0  0
   -1.4760   14.3750   -1.2750 C   0  0  0  0  0  0  0  0  0  0  0  0
   -3.7560   15.1170   -1.5590 C   0  0  0  0  0  0  0  0  0  0  0  0
   -1.3130   14.3310   -2.6800 C   0  0  0  0  0  0  0  0  0  0  0  0
   -3.5930   15.0730   -2.9500 C   0  0  0  0  0  0  0  0  0  0  0  0
    0.0160   13.9180   -3.2280 C   0  0  0  0  0  0  0  0  0  0  0  0
   -2.3710   14.6810   -3.5040 C   0  0  0  0  0  0  0  0  0  0  0  0
   -2.2030   14.6410   -4.8540 O   0  0  0  0  0  0  0  0  0  0  0  0
    0.9430   14.6360   -2.8410 O   0  0  0  0  0  0  0  0  0  0  0  0
    0.3210   12.7510   -4.0310 N   0  0  0  0  0  0  0  0  0  0  0  0
    1.2640   11.9780   -3.2880 C   0  0  0  0  0  0  0  0  0  0  0  0
   -0.2420   12.2230   -5.3290 N   0  0  0  0  0  0  0  0  0  0  0  0
    0.7110   10.7060   -2.9910 O   0  0  0  0  0  0  0  0  0  0  0  0
    0.5200   12.3130   -6.5990 N   0  0  0  0  0  0  0  0  0  0  0  0
   -0.7660   10.8190   -5.2670 C   0  0  2  0  0  0  0  0  0  0  0  0
    0.7270   10.9380   -7.2290 C   0  0  1  0  0  0  0  0  0  0  0  0
   -0.2700   10.0250   -6.5110 C   0  0  2  0  0  0  0  0  0  0  0  0
   -2.2630   10.7560   -5.0820 C   0  0  0  0  0  0  0  0  0  0  0  0
    0.7310   10.6410   -8.7690 C   0  0  0  0  0  0  0  0  0  0  0  0
   -1.3110    9.3030   -7.3390 C   0  0  0  0  0  0  0  0  0  0  0  0
   -3.0870   10.0680   -5.8940 C   0  0  0  0  0  0  0  0  0  0  0  0
    1.1800    9.3700   -8.9500 F   0  0  0  0  0  0  0  0  0  0  0  0
   -0.4620   10.7220   -9.3750 F   0  0  0  0  0  0  0  0  0  0  0  0
    1.5660   11.3340   -9.5510 F   0  0  0  0  0  0  0  0  0  0  0  0
   -2.6080    9.3290   -7.0300 C   0  0  0  0  0  0  0  0  0  0  0  0
  1  2  1  0
  2  3  1  0
  3  4  2  0
  3  5  1  0
  4  6  1  0
  5  7  2  0
  6  8  1  0
  6  9  2  0
  7  9  1  0
  9 10  1  0
  8 11  2  0
  8 12  1  0
 12 13  1  0
 12 14  1  0
 13 15  1  0
 14 16  1  0
 14 17  1  0
 16 18  1  0
 17 19  1  0
 18 19  1  0
 17 20  1  6
 18 21  1  6
 19 22  1  6
 20 23  2  0
 21 24  1  0
 21 25  1  0
 21 26  1  0
 22 27  2  0
 23 27  1  0
M  END
