mac-x0159-mac-x0137
     RDKit          3D

 23 26  0  0  0  0  0  0  0  0999 V2000
   -4.1670   15.4190    1.0940 N   0  0  0  0  0  0  0  0  0  0  0  0
   -3.3250   14.9370    0.0070 C   0  0  2  0  0  0  0  0  0  0  0  0
   -1.8640   15.4510    0.0800 C   0  0  2  0  0  0  0  0  0  0  0  0
   -4.0150   15.4460   -1.1530 N   0  0  0  0  0  0  0  0  0  0  0  0
   -3.3110   15.2120   -2.3950 C   0  0  0  0  0  0  0  0  0  0  0  0
   -1.1080   15.3550   -1.2670 C   0  0  2  0  0  0  0  0  0  0  0  0
   -0.9720   14.8070    1.0260 N   0  0  0  0  0  0  0  0  0  0  0  0
   -1.9260   15.7010   -2.4140 N   0  0  0  0  0  0  0  0  0  0  0  0
   -0.5520   13.9280   -1.2920 C   0  0  1  0  0  0  0  0  0  0  0  0
   -0.3670   13.7240    0.2440 C   0  0  0  0  0  0  0  0  0  0  0  0
   -1.2460   15.2700   -3.6310 C   0  0  0  0  0  0  0  0  0  0  0  0
   -1.6400   13.0040   -1.9510 C   0  0  0  0  0  0  0  0  0  0  0  0
    0.7580   13.6700   -2.0840 C   0  0  0  0  0  0  0  0  0  0  0  0
   -0.5770   16.3610   -4.3640 C   0  0  0  0  0  0  0  0  0  0  0  0
   -1.6590   12.9700   -3.4900 C   0  0  2  0  0  0  0  0  0  0  0  0
    0.7140   12.3920   -2.9620 C   0  0  0  0  0  0  0  0  0  0  0  0
   -2.7170   12.2170   -3.9020 F   0  0  0  0  0  0  0  0  0  0  0  0
    0.7590   16.7040   -4.3700 C   0  0  0  0  0  0  0  0  0  0  0  0
   -1.3940   17.1450   -5.1510 N   0  0  0  0  0  0  0  0  0  0  0  0
   -0.3820   12.3750   -4.0390 C   0  0  0  0  0  0  0  0  0  0  0  0
   -0.6900   18.0630   -5.7450 C   0  0  0  0  0  0  0  0  0  0  0  0
    0.9840   18.0530   -5.4000 S   0  0  0  0  0  0  0  0  0  0  0  0
   -1.2610   19.0690   -6.6690 C   0  0  0  0  0  0  0  0  0  0  0  0
  2  1  1  1
  2  3  1  0
  2  4  1  0
  4  5  1  0
  3  6  1  0
  3  7  1  1
  5  8  1  0
  6  8  1  6
  6  9  1  0
  7 10  1  0
  9 10  1  1
  8 11  1  0
  9 12  1  0
  9 13  1  0
 11 14  1  0
 12 15  1  0
 13 16  1  0
 15 17  1  1
 14 18  2  0
 14 19  1  0
 15 20  1  0
 16 20  1  0
 19 21  2  0
 18 22  1  0
 21 22  1  0
 21 23  1  0
M  END
