mac-x0439-mac-x0365
     RDKit          3D

 25 27  0  0  0  0  0  0  0  0999 V2000
   -3.1240   15.8360   -5.6560 Cl  0  0  0  0  0  0  0  0  0  0  0  0
   -1.7280   16.8290   -5.4720 C   0  0  0  0  0  0  0  0  0  0  0  0
   -0.8160   16.5750   -4.3300 C   0  0  1  0  0  0  0  0  0  0  0  0
   -1.4510   17.8360   -6.3180 C   0  0  0  0  0  0  0  0  0  0  0  0
   -0.4410   15.2550   -3.7360 C   0  0  0  0  0  0  0  0  0  0  0  0
    0.5840   17.0300   -4.6230 C   0  0  0  0  0  0  0  0  0  0  0  0
   -0.2570   18.6500   -6.1550 C   0  0  0  0  0  0  0  0  0  0  0  0
    0.8900   15.1910   -3.6250 C   0  0  0  0  0  0  0  0  0  0  0  0
    1.5220   16.2600   -4.1800 N   0  0  0  0  0  0  0  0  0  0  0  0
    0.7660   18.2970   -5.3480 C   0  0  0  0  0  0  0  0  0  0  0  0
    1.6260   14.0760   -2.9700 C   0  0  0  0  0  0  0  0  0  0  0  0
    2.5910   13.5100   -3.7250 O   0  0  0  0  0  0  0  0  0  0  0  0
    1.3810   13.6900   -1.7720 N   0  0  0  0  0  0  0  0  0  0  0  0
    0.3420   14.4410   -1.0390 C   0  0  0  0  0  0  0  0  0  0  0  0
   -1.0190   14.0180   -1.2060 O   0  0  0  0  0  0  0  0  0  0  0  0
   -1.8060   14.8770   -1.8950 C   0  0  0  0  0  0  0  0  0  0  0  0
   -1.4910   15.5240   -2.8590 O   0  0  0  0  0  0  0  0  0  0  0  0
   -3.1780   14.9500   -1.3650 C   0  0  0  0  0  0  0  0  0  0  0  0
   -4.2660   15.0290   -2.2300 C   0  0  0  0  0  0  0  0  0  0  0  0
   -3.3750   14.9370    0.0230 C   0  0  0  0  0  0  0  0  0  0  0  0
   -5.5470   15.0850   -1.7120 C   0  0  0  0  0  0  0  0  0  0  0  0
   -4.6710   14.9940    0.5380 C   0  0  0  0  0  0  0  0  0  0  0  0
   -6.5840   15.1530   -2.5490 F   0  0  0  0  0  0  0  0  0  0  0  0
   -5.7510   15.0640   -0.3370 C   0  0  0  0  0  0  0  0  0  0  0  0
   -7.0330   15.1100    0.1230 O   0  0  0  0  0  0  0  0  0  0  0  0
  1  2  1  0
  2  3  1  0
  2  4  2  0
  3  5  1  6
  3  6  1  0
  4  7  1  0
  5  8  2  0
  6  9  2  0
  8  9  1  0
  6 10  1  0
  7 10  2  0
  8 11  1  0
 11 12  1  0
 11 13  2  3
 13 14  1  0
 14 15  1  0
 15 16  1  0
 16 17  2  0
 16 18  1  0
 18 19  2  0
 18 20  1  0
 19 21  1  0
 20 22  2  0
 21 23  1  0
 21 24  2  0
 22 24  1  0
 24 25  1  0
M  END
