mac-x0116-mac-x0567
     RDKit          3D

 16 18  0  0  0  0  0  0  0  0999 V2000
   -6.0210   14.6860    1.8070 C   0  0  0  0  0  0  0  0  0  0  0  0
   -4.6150   15.0280    1.7210 N   0  0  0  0  0  0  0  0  0  0  0  0
   -3.8390   14.9590    0.5790 C   0  0  0  0  0  0  0  0  0  0  0  0
   -6.3880   13.2480    1.7610 C   0  0  0  0  0  0  0  0  0  0  0  0
   -6.2790   12.6080    0.5570 O   0  0  0  0  0  0  0  0  0  0  0  0
   -6.8460   12.3790    2.7180 C   0  0  0  0  0  0  0  0  0  0  0  0
   -7.0370   11.1450    2.0740 C   0  0  0  0  0  0  0  0  0  0  0  0
   -6.6780   11.3330    0.7610 C   0  0  0  0  0  0  0  0  0  0  0  0
   -4.3700   15.1020   -0.6910 N   0  0  0  0  0  0  0  0  0  0  0  0
   -2.5190   14.7400    0.6310 C   0  0  0  0  0  0  0  0  0  0  0  0
   -3.6050   15.0040   -1.8180 C   0  0  0  0  0  0  0  0  0  0  0  0
   -1.7510   14.6630   -0.6170 C   0  0  0  0  0  0  0  0  0  0  0  0
   -1.6540   14.5580    1.6690 N   0  0  0  0  0  0  0  0  0  0  0  0
   -2.3270   14.7890   -1.8530 N   0  0  0  0  0  0  0  0  0  0  0  0
   -0.4990   14.4770   -0.3360 N   0  0  0  0  0  0  0  0  0  0  0  0
   -0.5150   14.4250    1.0550 C   0  0  0  0  0  0  0  0  0  0  0  0
  1  2  1  0
  2  3  1  0
  1  4  1  0
  4  5  1  0
  4  6  2  0
  6  7  1  0
  5  8  1  0
  7  8  2  0
  3  9  1  0
  3 10  2  0
  9 11  1  0
 10 12  1  0
 10 13  1  0
 11 14  2  0
 12 14  1  0
 12 15  2  0
 13 16  2  0
 15 16  1  0
M  END
