mac-x0439-mac-x0282
     RDKit          3D

 23 26  0  0  0  0  0  0  0  0999 V2000
   -3.0570   15.8670   -5.1830 Cl  0  0  0  0  0  0  0  0  0  0  0  0
   -1.6250   16.7970   -5.3660 C   0  0  0  0  0  0  0  0  0  0  0  0
   -0.5380   16.6780   -4.3770 C   0  0  1  0  0  0  0  0  0  0  0  0
   -1.4510   17.6580   -6.3690 C   0  0  0  0  0  0  0  0  0  0  0  0
   -0.2450   15.5230   -3.4720 C   0  0  0  0  0  0  0  0  0  0  0  0
    0.7970   16.8540   -4.9360 C   0  0  0  0  0  0  0  0  0  0  0  0
   -0.1910   18.3740   -6.5170 C   0  0  0  0  0  0  0  0  0  0  0  0
    1.0600   15.2360   -3.5640 C   0  0  0  0  0  0  0  0  0  0  0  0
    1.6860   16.0210   -4.4940 N   0  0  0  0  0  0  0  0  0  0  0  0
    0.9360   18.0030   -5.8620 C   0  0  0  0  0  0  0  0  0  0  0  0
    1.8040   14.2240   -2.7330 C   0  0  0  0  0  0  0  0  0  0  0  0
    3.1210   14.4340   -2.7840 O   0  0  0  0  0  0  0  0  0  0  0  0
    1.5580   13.2430   -1.9840 N   0  0  0  0  0  0  0  0  0  0  0  0
    0.2160   12.8080   -1.7520 C   0  0  0  0  0  0  0  0  0  0  0  0
   -0.6510   13.5810   -0.7870 C   0  0  0  0  0  0  0  0  0  0  0  0
   -1.8090   14.0090   -1.3710 C   0  0  0  0  0  0  0  0  0  0  0  0
   -0.4380   13.8850    0.5850 C   0  0  0  0  0  0  0  0  0  0  0  0
   -2.7160   14.6880   -0.6150 C   0  0  0  0  0  0  0  0  0  0  0  0
   -1.3110   14.5700    1.4010 N   0  0  0  0  0  0  0  0  0  0  0  0
   -3.9690   15.2310   -0.9110 C   0  0  0  0  0  0  0  0  0  0  0  0
   -2.4250   14.9260    0.7170 C   0  0  0  0  0  0  0  0  0  0  0  0
   -4.4300   15.7790    0.2340 C   0  0  0  0  0  0  0  0  0  0  0  0
   -3.5000   15.5990    1.2200 N   0  0  0  0  0  0  0  0  0  0  0  0
  1  2  1  0
  2  3  1  0
  2  4  2  0
  3  5  1  6
  3  6  1  0
  4  7  1  0
  5  8  2  0
  6  9  2  0
  8  9  1  0
  6 10  1  0
  7 10  2  0
  8 11  1  0
 11 12  1  0
 11 13  2  3
 13 14  1  0
 14 15  1  0
 15 16  2  0
 15 17  1  0
 16 18  1  0
 17 19  2  0
 18 20  1  0
 18 21  2  0
 19 21  1  0
 20 22  2  0
 21 23  1  0
 22 23  1  0
M  END
