mac-x0139-mac-x0433
     RDKit          3D

 25 27  0  0  0  0  0  0  0  0999 V2000
   -1.4430   15.4420   -3.4200 C   0  0  0  0  0  0  0  0  0  0  0  0
   -0.2430   15.5400   -2.5640 N   0  0  0  0  0  0  0  0  0  0  0  0
    0.9450   14.8670   -3.1140 C   0  0  0  0  0  0  0  0  0  0  0  0
   -0.5590   15.3000   -1.2100 C   0  0  0  0  0  0  0  0  0  0  0  0
    0.5920   13.5960   -3.8820 C   0  0  0  0  0  0  0  0  0  0  0  0
   -1.8520   15.4490   -0.8040 C   0  0  0  0  0  0  0  0  0  0  0  0
    0.3310   14.9190   -0.2490 N   0  0  0  0  0  0  0  0  0  0  0  0
    0.9210   12.4020   -3.0380 C   0  0  0  0  0  0  0  0  0  0  0  0
   -2.1580   15.2070    0.5120 C   0  0  0  0  0  0  0  0  0  0  0  0
   -0.1320   14.7240    1.0290 C   0  0  0  0  0  0  0  0  0  0  0  0
   -3.0330   15.8180   -1.4770 C   0  0  0  0  0  0  0  0  0  0  0  0
    1.5790   12.4650   -2.0220 O   0  0  0  0  0  0  0  0  0  0  0  0
    0.4270   11.2370   -3.4980 O   0  0  0  0  0  0  0  0  0  0  0  0
   -1.3600   14.8390    1.5010 N   0  0  0  0  0  0  0  0  0  0  0  0
   -3.4570   15.4120    0.5980 N   0  0  0  0  0  0  0  0  0  0  0  0
   -4.0080   15.7890   -0.5740 C   0  0  0  0  0  0  0  0  0  0  0  0
   -4.2960   15.2850    1.6540 C   0  0  0  0  0  0  0  0  0  0  0  0
   -5.4760   15.0490    0.7750 C   0  0  0  0  0  0  0  0  0  0  0  0
   -5.2650   15.2690   -0.5660 N   0  0  0  0  0  0  0  0  0  0  0  0
   -6.6690   14.6540    1.2470 C   0  0  0  0  0  0  0  0  0  0  0  0
   -6.2820   15.0920   -1.4110 C   0  0  0  0  0  0  0  0  0  0  0  0
   -7.6550   14.4990    0.3080 C   0  0  0  0  0  0  0  0  0  0  0  0
   -8.9990   14.0740    0.7690 C   0  0  0  0  0  0  0  0  0  0  0  0
   -6.0680   15.3080   -2.7630 N   0  0  0  0  0  0  0  0  0  0  0  0
   -7.4880   14.7100   -1.0180 N   0  0  0  0  0  0  0  0  0  0  0  0
  1  2  1  0
  2  3  1  0
  2  4  1  0
  3  5  1  0
  4  6  2  0
  4  7  1  0
  5  8  1  0
  6  9  1  0
  7 10  2  0
  6 11  1  0
  8 12  2  0
  8 13  1  0
  9 14  2  0
 10 14  1  0
  9 15  1  0
 11 16  2  0
 15 16  1  0
 15 17  1  0
 17 18  1  0
 18 19  2  0
 18 20  1  0
 19 21  1  0
 20 22  2  0
 22 23  1  0
 21 24  1  0
 21 25  2  0
 22 25  1  0
M  END
