mac-x0472-mac-x0348
     RDKit          3D

 30 33  0  0  0  0  0  0  0  0999 V2000
   -4.5620   15.2920   -2.4880 O   0  0  0  0  0  0  0  0  0  0  0  0
   -3.5490   14.2760   -2.6660 S   0  0  1  0  0  0  0  0  0  0  0  0
   -2.7080   14.0430   -3.9470 N   0  0  0  0  0  0  0  0  0  0  0  0
   -2.3730   14.6360   -1.5290 N   0  0  0  0  0  0  0  0  0  0  0  0
   -4.2530   12.7050   -2.2770 C   0  0  0  0  0  0  0  0  0  0  0  0
   -2.7500   14.8020   -0.2510 C   0  0  0  0  0  0  0  0  0  0  0  0
   -3.5460   11.5610   -2.6560 C   0  0  0  0  0  0  0  0  0  0  0  0
   -5.4780   12.6120   -1.6170 C   0  0  0  0  0  0  0  0  0  0  0  0
   -2.5310   15.2260   -4.8050 C   0  0  0  0  0  0  0  0  0  0  0  0
   -1.9930   14.4560    0.7670 N   0  0  0  0  0  0  0  0  0  0  0  0
   -4.2650   15.4810    0.2340 S   0  0  0  0  0  0  0  0  0  0  0  0
   -4.0800   10.3090   -2.3730 C   0  0  0  0  0  0  0  0  0  0  0  0
   -6.0040   11.3520   -1.3360 C   0  0  0  0  0  0  0  0  0  0  0  0
   -1.3170   15.9300   -4.8080 C   0  0  0  0  0  0  0  0  0  0  0  0
   -3.5830   15.6450   -5.6210 C   0  0  0  0  0  0  0  0  0  0  0  0
   -3.7740   15.2400    1.8430 C   0  0  0  0  0  0  0  0  0  0  0  0
   -2.5860   14.7070    1.9760 N   0  0  0  0  0  0  0  0  0  0  0  0
   -5.3060   10.2060   -1.7170 C   0  0  0  0  0  0  0  0  0  0  0  0
   -0.0590   15.7890   -4.1400 C   0  0  0  0  0  0  0  0  0  0  0  0
   -1.2060   17.0510   -5.6270 C   0  0  0  0  0  0  0  0  0  0  0  0
   -3.4420   16.7630   -6.4260 C   0  0  0  0  0  0  0  0  0  0  0  0
    0.3430   14.7430   -3.1610 C   0  0  0  0  0  0  0  0  0  0  0  0
    0.0540   17.5560   -5.4690 N   0  0  0  0  0  0  0  0  0  0  0  0
    0.7410   16.8080   -4.5680 C   0  0  0  0  0  0  0  0  0  0  0  0
   -2.2550   17.4860   -6.4300 C   0  0  0  0  0  0  0  0  0  0  0  0
    0.5930   18.7040   -6.1470 C   0  0  0  0  0  0  0  0  0  0  0  0
    0.5790   13.4080   -3.8620 C   0  0  0  0  0  0  0  0  0  0  0  0
    0.8130   12.3320   -2.8500 C   0  0  0  0  0  0  0  0  0  0  0  0
    1.4590   12.5010   -1.8400 O   0  0  0  0  0  0  0  0  0  0  0  0
    0.2370   11.1520   -3.1570 O   0  0  0  0  0  0  0  0  0  0  0  0
  1  2  2  0
  2  3  2  0
  2  4  1  1
  2  5  1  0
  4  6  1  0
  5  7  2  0
  5  8  1  0
  3  9  1  0
  6 10  2  0
  6 11  1  0
  7 12  1  0
  8 13  2  0
  9 14  1  0
  9 15  2  0
 11 16  1  0
 10 17  1  0
 16 17  2  0
 12 18  2  0
 13 18  1  0
 14 19  1  0
 14 20  2  0
 15 21  1  0
 19 22  1  0
 20 23  1  0
 19 24  2  0
 23 24  1  0
 20 25  1  0
 21 25  2  0
 23 26  1  0
 22 27  1  0
 27 28  1  0
 28 29  2  0
 28 30  1  0
M  END
