mac-x0132-diamond-x0587_0_A
     RDKit          3D

 18 19  0  0  0  0  0  0  0  0999 V2000
   -4.3200   14.0610    1.8910 N   0  0  0  0  0  0  0  0  0  0  0  0
   -5.3030   15.0600    1.5370 C   0  0  2  0  0  0  0  0  0  0  0  0
   -6.6360   14.4420    1.5590 N   0  0  0  0  0  0  0  0  0  0  0  0
   -4.8970   15.6950    0.1720 C   0  0  2  0  0  0  0  0  0  0  0  0
   -7.6860   14.8860    2.4040 C   0  0  0  0  0  0  0  0  0  0  0  0
   -6.0290   15.4020   -0.8510 C   0  0  2  0  0  0  0  0  0  0  0  0
   -6.8600   13.5220    0.4560 C   0  0  0  0  0  0  0  0  0  0  0  0
   -3.5070   15.3440   -0.3510 C   0  0  0  0  0  0  0  0  0  0  0  0
   -7.5070   14.9420    3.7520 N   0  0  0  0  0  0  0  0  0  0  0  0
   -8.8020   15.2330    2.0010 O   0  0  0  0  0  0  0  0  0  0  0  0
   -6.4040   14.0340   -0.8280 N   0  0  0  0  0  0  0  0  0  0  0  0
   -5.5720   15.5110   -2.2740 C   0  0  0  0  0  0  0  0  0  0  0  0
   -3.2490   15.2290   -1.6620 C   0  0  0  0  0  0  0  0  0  0  0  0
   -5.2030   13.4600   -1.4040 C   0  0  0  0  0  0  0  0  0  0  0  0
   -4.2800   15.4300   -2.6420 C   0  0  0  0  0  0  0  0  0  0  0  0
   -4.1000   13.7520   -0.6730 F   0  0  0  0  0  0  0  0  0  0  0  0
   -5.2360   12.1390   -1.5850 F   0  0  0  0  0  0  0  0  0  0  0  0
   -4.9910   14.0300   -2.6110 F   0  0  0  0  0  0  0  0  0  0  0  0
  2  1  1  6
  2  3  1  0
  2  4  1  0
  3  5  1  0
  4  6  1  0
  3  7  1  0
  4  8  1  6
  5  9  1  0
  5 10  2  0
  6 11  1  0
  7 11  1  0
  6 12  1  6
  8 13  2  0
 11 14  1  0
 12 15  2  0
 13 15  1  0
 14 16  1  0
 14 17  1  0
 14 18  1  0
M  END
