mac-x0224-diamond-x0766_0_A
     RDKit          3D

 18 20  0  0  0  0  0  0  0  0999 V2000
   -5.2000   14.8710    1.1900 C   0  0  0  0  0  0  0  0  0  0  0  0
   -3.5870   15.6630    1.0020 S   0  0  0  0  0  0  0  0  0  0  0  0
   -2.9050   15.1280   -0.5360 C   0  0  0  0  0  0  0  0  0  0  0  0
   -1.5250   14.8370   -0.6020 C   0  0  0  0  0  0  0  0  0  0  0  0
   -3.6220   14.9880   -1.6230 C   0  0  0  0  0  0  0  0  0  0  0  0
   -1.0040   14.4440   -1.6930 C   0  0  0  0  0  0  0  0  0  0  0  0
   -2.9330   14.4960   -2.9120 C   0  0  0  0  0  0  0  0  0  0  0  0
    0.4330   14.1330   -1.7290 C   0  0  0  0  0  0  0  0  0  0  0  0
   -1.3710   14.0720   -3.3250 S   0  0  0  0  0  0  0  0  0  0  0  0
   -0.8470   13.6330   -4.5500 O   0  0  0  0  0  0  0  0  0  0  0  0
    0.1420   13.3250   -2.6590 N   0  0  0  0  0  0  0  0  0  0  0  0
    1.6090   14.5760   -1.2110 O   0  0  0  0  0  0  0  0  0  0  0  0
    0.0190   13.4110   -4.5450 C   0  0  2  0  0  0  0  0  0  0  0  0
    0.1490   13.9940   -2.7040 C   0  0  0  0  0  0  0  0  0  0  0  0
    0.7170   12.5500   -3.6200 C   0  0  2  0  0  0  0  0  0  0  0  0
    0.5820   14.6810   -4.9010 C   0  0  0  0  0  0  0  0  0  0  0  0
    0.8740   15.1210   -3.5630 C   0  0  0  0  0  0  0  0  0  0  0  0
    0.2250   11.2370   -3.4000 O   0  0  0  0  0  0  0  0  0  0  0  0
  1  2  1  0
  2  3  1  0
  3  4  2  0
  3  5  1  0
  4  6  1  0
  5  7  2  0
  6  8  1  0
  6  9  2  0
  7  9  1  0
  9 10  1  0
  8 11  2  0
  8 12  1  0
  9 13  1  0
  9 14  1  0
 11 15  1  0
 13 15  1  0
 13 16  1  1
 14 17  1  0
 16 17  1  0
 15 18  1  1
M  END
