mac-x0510-mac-x1494
     RDKit          3D

 16 18  0  0  0  0  0  0  0  0999 V2000
   -6.0540   15.0120    0.5570 O   0  0  0  0  0  0  0  0  0  0  0  0
   -4.8680   15.1530    0.2520 C   0  0  0  0  0  0  0  0  0  0  0  0
   -4.4390   15.5180   -1.0510 N   0  0  0  0  0  0  0  0  0  0  0  0
   -3.9080   14.9380    1.2200 N   0  0  0  0  0  0  0  0  0  0  0  0
   -2.5850   14.9720    0.9230 C   0  0  0  0  0  0  0  0  0  0  0  0
   -3.0520   15.3070   -1.4740 C   0  0  1  0  0  0  0  0  0  0  0  0
   -5.3400   15.4460   -2.1240 C   0  0  0  0  0  0  0  0  0  0  0  0
   -2.6070   16.3790   -2.2640 O   0  0  0  0  0  0  0  0  0  0  0  0
   -2.1710   15.1550   -0.3480 C   0  0  0  0  0  0  0  0  0  0  0  0
   -1.5460   14.8320    1.7680 N   0  0  0  0  0  0  0  0  0  0  0  0
   -2.9770   14.0820   -2.3000 C   0  0  0  0  0  0  0  0  0  0  0  0
   -5.0100   14.9010   -3.3230 C   0  0  0  0  0  0  0  0  0  0  0  0
   -0.8140   15.1420   -0.3110 N   0  0  0  0  0  0  0  0  0  0  0  0
   -0.4780   14.9450    0.9980 C   0  0  0  0  0  0  0  0  0  0  0  0
   -3.6670   14.3120   -3.6100 C   0  0  1  0  0  0  0  0  0  0  0  0
   -2.6450   15.3140   -4.6810 Cl  0  0  0  0  0  0  0  0  0  0  0  0
  1  2  2  0
  2  3  1  0
  2  4  1  0
  4  5  1  0
  3  6  1  0
  3  7  1  0
  6  8  1  6
  5  9  2  0
  6  9  1  0
  5 10  1  0
  6 11  1  0
  7 12  2  0
  9 13  1  0
 10 14  2  0
 13 14  1  0
 11 15  1  0
 12 15  1  0
 15 16  1  6
M  END
