mac-x0231-mac-x0303
     RDKit          3D

 29 32  0  0  0  0  0  0  0  0999 V2000
    0.8800   10.6880   -3.1760 O   0  0  0  0  0  0  0  0  0  0  0  0
    1.4280   11.9120   -3.1370 C   0  0  0  0  0  0  0  0  0  0  0  0
    1.5410   12.5110   -2.0820 O   0  0  0  0  0  0  0  0  0  0  0  0
    1.8680   12.4770   -4.4610 C   0  0  0  0  0  0  0  0  0  0  0  0
    1.3590   13.8820   -4.5010 C   0  0  0  0  0  0  0  0  0  0  0  0
   -0.0840   14.0940   -4.5290 C   0  0  0  0  0  0  0  0  0  0  0  0
    2.2090   14.8480   -4.4230 N   0  0  0  0  0  0  0  0  0  0  0  0
   -0.5330   15.4070   -4.5380 C   0  0  0  0  0  0  0  0  0  0  0  0
    1.7360   16.1230   -4.4020 N   0  0  0  0  0  0  0  0  0  0  0  0
   -0.9780   13.0250   -4.5190 C   0  0  0  0  0  0  0  0  0  0  0  0
    0.4360   16.5050   -4.5680 C   0  0  0  0  0  0  0  0  0  0  0  0
   -1.8870   15.6690   -4.4970 C   0  0  0  0  0  0  0  0  0  0  0  0
   -2.3340   13.2870   -4.4770 C   0  0  0  0  0  0  0  0  0  0  0  0
    0.0900   17.6740   -4.7290 O   0  0  0  0  0  0  0  0  0  0  0  0
   -2.7740   14.6010   -4.4490 C   0  0  0  0  0  0  0  0  0  0  0  0
   -4.1990   14.8840   -4.3350 C   0  0  0  0  0  0  0  0  0  0  0  0
   -4.5430   14.9430   -2.8300 C   0  0  0  0  0  0  0  0  0  0  0  0
   -5.8730   14.7880   -2.4350 C   0  0  0  0  0  0  0  0  0  0  0  0
   -3.5440   15.1280   -1.8280 C   0  0  0  0  0  0  0  0  0  0  0  0
   -6.1560   14.7980   -1.0720 C   0  0  0  0  0  0  0  0  0  0  0  0
   -3.8640   15.1420   -0.4480 C   0  0  0  0  0  0  0  0  0  0  0  0
   -7.3390   14.6530   -0.4080 N   0  0  0  0  0  0  0  0  0  0  0  0
   -5.2030   14.9620   -0.0740 C   0  0  0  0  0  0  0  0  0  0  0  0
   -7.0960   14.7170    0.9350 C   0  0  0  0  0  0  0  0  0  0  0  0
   -5.7980   14.9100    1.1720 N   0  0  0  0  0  0  0  0  0  0  0  0
   -8.4210   14.5570    2.0980 S   0  0  0  0  0  0  0  0  0  0  0  0
   -8.3170   13.0010    2.7330 N   0  0  0  0  0  0  0  0  0  0  0  0
   -8.1250   15.4750    3.1740 O   0  0  0  0  0  0  0  0  0  0  0  0
   -9.6670   14.6030    1.3610 O   0  0  0  0  0  0  0  0  0  0  0  0
  1  2  1  0
  2  3  2  0
  2  4  1  0
  4  5  1  0
  5  6  1  0
  5  7  2  0
  6  8  2  0
  7  9  1  0
  6 10  1  0
  8 11  1  0
  9 11  1  0
  8 12  1  0
 10 13  2  0
 11 14  2  0
 12 15  2  0
 13 15  1  0
 15 16  1  0
 16 17  1  0
 17 18  2  0
 17 19  1  0
 18 20  1  0
 19 21  2  0
 20 22  1  0
 20 23  2  0
 21 23  1  0
 22 24  1  0
 23 25  1  0
 24 25  2  0
 24 26  1  0
 26 27  1  0
 26 28  2  0
 26 29  2  0
M  END
