mac-x0412-mac-x0131
     RDKit          3D

 24 27  0  0  0  0  0  0  0  0999 V2000
   -7.8880   14.9310   -0.8640 O   0  0  0  0  0  0  0  0  0  0  0  0
   -6.8630   14.8750   -0.2010 C   0  0  0  0  0  0  0  0  0  0  0  0
   -6.9460   14.6380    1.1430 N   0  0  0  0  0  0  0  0  0  0  0  0
   -5.4360   15.0670   -0.7600 C   0  0  1  0  0  0  0  0  0  0  0  0
   -4.3560   14.2130   -0.0060 C   0  0  2  0  0  0  0  0  0  0  0  0
   -5.8710   14.6640    1.9580 C   0  0  0  0  0  0  0  0  0  0  0  0
   -5.4040   14.9330   -2.2780 C   0  0  0  0  0  0  0  0  0  0  0  0
   -4.6400   14.4610    1.4760 C   0  0  0  0  0  0  0  0  0  0  0  0
   -2.8730   14.5960   -0.4530 C   0  0  1  0  0  0  0  0  0  0  0  0
   -4.0110   14.6290   -2.8330 C   0  0  1  0  0  0  0  0  0  0  0  0
   -3.8760   15.0620   -4.3010 C   0  0  0  0  0  0  0  0  0  0  0  0
   -2.8310   15.1870   -1.9700 C   0  0  2  0  0  0  0  0  0  0  0  0
   -2.4210   15.4390    0.7400 C   0  0  2  0  0  0  0  0  0  0  0  0
   -1.7290   13.5560   -0.4180 C   0  0  0  0  0  0  0  0  0  0  0  0
   -1.4620   15.0600   -2.8030 C   0  0  0  0  0  0  0  0  0  0  0  0
   -3.3710   16.4580    1.0790 N   0  0  0  0  0  0  0  0  0  0  0  0
   -1.0990   15.9900    0.6590 N   0  0  0  0  0  0  0  0  0  0  0  0
   -0.3930   14.1530   -0.5810 N   0  0  0  0  0  0  0  0  0  0  0  0
   -0.9550   13.7040   -3.2910 C   0  0  0  0  0  0  0  0  0  0  0  0
   -0.0790   14.9810    0.5490 C   0  0  0  0  0  0  0  0  0  0  0  0
    0.3030   13.1380   -3.4840 C   0  0  0  0  0  0  0  0  0  0  0  0
   -1.8990   12.7730   -3.6450 O   0  0  0  0  0  0  0  0  0  0  0  0
   -1.2570   11.6470   -4.0510 C   0  0  0  0  0  0  0  0  0  0  0  0
    0.0980   11.8220   -3.9700 C   0  0  0  0  0  0  0  0  0  0  0  0
  1  2  2  0
  2  3  1  0
  2  4  1  0
  4  5  1  0
  3  6  1  0
  4  7  1  6
  5  8  1  1
  6  8  2  0
  5  9  1  0
  7 10  1  0
 10 11  1  6
  9 12  1  0
 10 12  1  0
  9 13  1  0
  9 14  1  6
 12 15  1  6
 13 16  1  6
 13 17  1  0
 14 18  1  0
 15 19  1  0
 17 20  1  0
 18 20  1  0
 19 21  2  0
 19 22  1  0
 22 23  1  0
 21 24  1  0
 23 24  2  0
M  END
