mac-x0346-mac-x0271
     RDKit          3D

 17 18  0  0  0  0  0  0  0  0999 V2000
   -7.7780   13.4290   -0.2930 O   0  0  0  0  0  0  0  0  0  0  0  0
   -7.8090   14.4090   -1.3270 N   0  0  0  0  0  0  0  0  0  0  0  0
   -6.6080   14.7450   -1.9040 C   0  0  0  0  0  0  0  0  0  0  0  0
   -6.4390   14.8290   -3.1070 O   0  0  0  0  0  0  0  0  0  0  0  0
   -5.5150   14.9910   -0.9510 C   0  0  0  0  0  0  0  0  0  0  0  0
   -4.1370   15.1820   -1.3910 C   0  0  0  0  0  0  0  0  0  0  0  0
   -5.9770   15.0030    0.2540 C   0  0  0  0  0  0  0  0  0  0  0  0
   -3.9860   15.6670   -2.6760 O   0  0  0  0  0  0  0  0  0  0  0  0
   -3.0280   14.9310   -0.6870 C   0  0  0  0  0  0  0  0  0  0  0  0
   -5.1860   15.2120    1.5190 C   0  0  2  0  0  0  0  0  0  0  0  0
   -7.3990   14.8140    0.3100 O   0  0  0  0  0  0  0  0  0  0  0  0
   -2.9290   14.4040    0.6560 C   0  0  0  0  0  0  0  0  0  0  0  0
   -3.8550   14.5010    1.6300 C   0  0  0  0  0  0  0  0  0  0  0  0
   -6.1150   15.0070    2.6920 C   0  0  0  0  0  0  0  0  0  0  0  0
   -8.1920   14.8850    1.3930 C   0  0  0  0  0  0  0  0  0  0  0  0
   -9.4170   14.9780    1.3350 O   0  0  0  0  0  0  0  0  0  0  0  0
   -7.4550   14.8580    2.6450 C   0  0  0  0  0  0  0  0  0  0  0  0
  1  2  1  0
  2  3  1  0
  3  4  2  0
  3  5  1  0
  5  6  1  0
  5  7  2  0
  6  8  1  0
  6  9  2  0
  7 10  1  0
  7 11  1  0
  9 12  1  0
 10 13  1  1
 12 13  2  0
 10 14  1  0
 11 15  1  0
 15 16  2  0
 14 17  2  0
 15 17  1  0
M  END
