mac-x0263-mac-x0159
     RDKit          3D

 30 34  0  0  0  0  0  0  0  0999 V2000
  -11.5210   14.3150    2.5520 O   0  0  0  0  0  0  0  0  0  0  0  0
  -10.8260   15.4250    2.8730 C   0  0  0  0  0  0  0  0  0  0  0  0
  -11.2490   16.2030    3.7100 O   0  0  0  0  0  0  0  0  0  0  0  0
   -9.5460   15.5750    2.1010 C   0  0  0  0  0  0  0  0  0  0  0  0
   -8.7100   14.2950    2.0450 C   0  0  0  0  0  0  0  0  0  0  0  0
   -7.5730   14.5210    1.1180 C   0  0  0  0  0  0  0  0  0  0  0  0
   -7.7910   15.0610   -0.1150 N   0  0  0  0  0  0  0  0  0  0  0  0
   -6.2890   14.2740    1.3080 N   0  0  0  0  0  0  0  0  0  0  0  0
   -6.6020   15.1740   -0.7440 C   0  0  0  0  0  0  0  0  0  0  0  0
   -5.6680   14.6830    0.1470 C   0  0  0  0  0  0  0  0  0  0  0  0
   -6.2840   15.6520   -1.9950 C   0  0  0  0  0  0  0  0  0  0  0  0
   -4.3310   14.6850   -0.2870 C   0  0  0  0  0  0  0  0  0  0  0  0
   -4.9500   15.6280   -2.3450 C   0  0  0  0  0  0  0  0  0  0  0  0
   -4.0280   15.1700   -1.5140 C   0  0  0  0  0  0  0  0  0  0  0  0
   -3.1170   14.2140    0.3210 C   0  0  1  0  0  0  0  0  0  0  0  0
   -2.7770   13.1870   -0.6910 N   0  0  0  0  0  0  0  0  0  0  0  0
   -2.0040   15.2360    0.2360 C   0  0  2  0  0  0  0  0  0  0  0  0
   -2.6480   13.7070   -2.0900 C   0  0  0  0  0  0  0  0  0  0  0  0
   -1.0800   14.6730   -0.8430 C   0  0  1  0  0  0  0  0  0  0  0  0
   -1.1020   15.3620    1.3690 N   0  0  0  0  0  0  0  0  0  0  0  0
   -1.6540   14.7700   -2.1640 N   0  0  0  0  0  0  0  0  0  0  0  0
    0.1320   15.3590   -0.5840 N   0  0  0  0  0  0  0  0  0  0  0  0
    0.2020   15.0540    0.8160 C   0  0  0  0  0  0  0  0  0  0  0  0
   -0.7030   14.5620   -3.2700 C   0  0  0  0  0  0  0  0  0  0  0  0
   -0.3590   15.8370   -4.0280 C   0  0  0  0  0  0  0  0  0  0  0  0
    0.9060   16.3910   -4.1310 C   0  0  0  0  0  0  0  0  0  0  0  0
   -1.3510   16.5560   -4.7060 N   0  0  0  0  0  0  0  0  0  0  0  0
   -0.8210   17.6160   -5.2930 C   0  0  0  0  0  0  0  0  0  0  0  0
    0.8620   17.8200   -5.0760 S   0  0  0  0  0  0  0  0  0  0  0  0
   -1.5750   18.6080   -6.1080 C   0  0  0  0  0  0  0  0  0  0  0  0
  1  2  1  0
  2  3  2  0
  2  4  1  0
  4  5  1  0
  5  6  1  0
  6  7  1  0
  6  8  2  0
  7  9  1  0
  8 10  1  0
  9 10  2  0
  9 11  1  0
 10 12  1  0
 11 13  2  0
 12 14  2  0
 13 14  1  0
 15 12  1  6
 15 16  1  0
 15 17  1  0
 16 18  1  0
 17 19  1  0
 17 20  1  1
 18 21  1  0
 19 21  1  0
 19 22  1  6
 20 23  1  0
 22 23  1  0
 21 24  1  0
 24 25  1  0
 25 26  2  0
 25 27  1  0
 27 28  2  0
 26 29  1  0
 28 29  1  0
 28 30  1  0
M  END
