mac-x0282-mac-x0328
     RDKit          3D

 18 20  0  0  0  0  0  0  0  0999 V2000
   -2.1140   14.9110   -4.3020 O   0  0  0  0  0  0  0  0  0  0  0  0
   -2.4150   14.5870   -2.9520 C   0  0  0  0  0  0  0  0  0  0  0  0
   -3.8860   14.7640   -2.6200 C   0  0  0  0  0  0  0  0  0  0  0  0
   -4.3550   14.9080   -1.3340 C   0  0  0  0  0  0  0  0  0  0  0  0
   -4.8730   14.7830   -3.5970 C   0  0  0  0  0  0  0  0  0  0  0  0
   -5.6650   15.0720   -0.9700 C   0  0  0  0  0  0  0  0  0  0  0  0
   -6.2310   14.9430   -3.2410 C   0  0  0  0  0  0  0  0  0  0  0  0
   -3.6120   14.8910   -0.2280 C   0  0  0  0  0  0  0  0  0  0  0  0
   -6.6060   15.0910   -1.9150 C   0  0  0  0  0  0  0  0  0  0  0  0
   -4.3040   15.0320    0.9240 C   0  0  0  0  0  0  0  0  0  0  0  0
   -2.2620   14.7390   -0.0010 C   0  0  0  0  0  0  0  0  0  0  0  0
   -7.9090   15.2480   -1.5760 O   0  0  0  0  0  0  0  0  0  0  0  0
   -2.2000   14.7760    1.3590 C   0  0  0  0  0  0  0  0  0  0  0  0
   -3.4190   14.9550    1.8930 N   0  0  0  0  0  0  0  0  0  0  0  0
   -1.0730   14.5680   -0.7300 C   0  0  0  0  0  0  0  0  0  0  0  0
    0.0790   14.4540    0.0240 C   0  0  0  0  0  0  0  0  0  0  0  0
   -1.1590   14.6600    2.0830 N   0  0  0  0  0  0  0  0  0  0  0  0
   -0.0660   14.5090    1.4000 C   0  0  0  0  0  0  0  0  0  0  0  0
  1  2  1  0
  2  3  1  0
  3  4  2  0
  3  5  1  0
  4  6  1  0
  5  7  2  0
  4  8  1  0
  6  9  2  0
  7  9  1  0
  8 10  2  0
  8 11  1  0
  9 12  1  0
 11 13  2  0
 10 14  1  0
 13 14  1  0
 11 15  1  0
 15 16  2  0
 13 17  1  0
 16 18  1  0
 17 18  2  0
M  END
