mac-x0412-mac-x0271
     RDKit          3D

 12 13  0  0  0  0  0  0  0  0999 V2000
   -7.8720   14.4340   -1.1130 O   0  0  0  0  0  0  0  0  0  0  0  0
   -7.0900   14.8600   -0.2740 C   0  0  0  0  0  0  0  0  0  0  0  0
   -7.4370   14.8300    1.2270 C   0  0  0  0  0  0  0  0  0  0  0  0
   -5.7220   15.4710   -0.6870 C   0  0  1  0  0  0  0  0  0  0  0  0
   -8.6850   14.8490    1.5050 O   0  0  0  0  0  0  0  0  0  0  0  0
   -4.6340   15.0930    0.2980 C   0  0  0  0  0  0  0  0  0  0  0  0
   -6.3340   14.8020    2.0220 C   0  0  0  0  0  0  0  0  0  0  0  0
   -5.3480   15.1630   -2.1180 C   0  0  0  0  0  0  0  0  0  0  0  0
   -4.9510   14.7900    1.5640 C   0  0  0  0  0  0  0  0  0  0  0  0
   -3.2690   15.0650   -0.1920 C   0  0  0  0  0  0  0  0  0  0  0  0
   -4.0810   14.9440   -2.4880 C   0  0  0  0  0  0  0  0  0  0  0  0
   -3.0180   14.9910   -1.5140 C   0  0  0  0  0  0  0  0  0  0  0  0
  1  2  2  0
  2  3  1  0
  2  4  1  0
  3  5  1  0
  4  6  1  0
  3  7  2  0
  4  8  1  6
  6  9  2  0
  7  9  1  0
  6 10  1  0
  8 11  2  0
 10 12  2  0
 11 12  1  0
M  CHG  1   5  -1
M  END
