mac-x0347-diamond-x0465_0_A
     RDKit          3D

 27 29  0  0  0  0  0  0  0  0999 V2000
    1.0580   14.7390   -3.2140 O   0  0  0  0  0  0  0  0  0  0  0  0
   -0.0180   13.9930   -2.8650 C   0  0  0  0  0  0  0  0  0  0  0  0
   -0.0860   12.7570   -2.7240 N   0  0  0  0  0  0  0  0  0  0  0  0
   -1.3130   14.5550   -2.7540 C   0  0  0  0  0  0  0  0  0  0  0  0
    1.0140   11.9660   -3.0600 C   0  0  2  0  0  0  0  0  0  0  0  0
   -2.0410   14.4370   -1.5920 C   0  0  0  0  0  0  0  0  0  0  0  0
   -1.8470   15.1770   -3.8580 C   0  0  0  0  0  0  0  0  0  0  0  0
    1.1110   12.3990   -4.5630 C   0  0  1  0  0  0  0  0  0  0  0  0
    0.7360   10.5800   -2.9020 O   0  0  0  0  0  0  0  0  0  0  0  0
   -3.3270   14.9450   -1.5780 C   0  0  0  0  0  0  0  0  0  0  0  0
   -3.0790   15.6860   -3.8880 N   0  0  0  0  0  0  0  0  0  0  0  0
    2.4820   12.9800   -4.8650 C   0  0  0  0  0  0  0  0  0  0  0  0
    0.8280   11.3950   -5.5770 O   0  0  0  0  0  0  0  0  0  0  0  0
   -3.7830   15.5450   -2.7400 C   0  0  0  0  0  0  0  0  0  0  0  0
   -4.1820   14.8530   -0.4170 C   0  0  0  0  0  0  0  0  0  0  0  0
   -3.8490   15.4640    0.7960 C   0  0  0  0  0  0  0  0  0  0  0  0
   -5.3790   14.1320   -0.5060 C   0  0  0  0  0  0  0  0  0  0  0  0
   -0.4300   10.8260   -5.6600 C   0  0  0  0  0  0  0  0  0  0  0  0
   -4.6940   15.3530    1.8840 C   0  0  0  0  0  0  0  0  0  0  0  0
   -6.2280   14.0180    0.5840 C   0  0  0  0  0  0  0  0  0  0  0  0
   -0.6410    9.8010   -6.5900 C   0  0  0  0  0  0  0  0  0  0  0  0
   -1.4920   11.2330   -4.8500 C   0  0  0  0  0  0  0  0  0  0  0  0
    0.3510    9.3860   -7.3880 F   0  0  0  0  0  0  0  0  0  0  0  0
   -5.8820   14.6310    1.7830 C   0  0  0  0  0  0  0  0  0  0  0  0
   -1.8810    9.1840   -6.7160 C   0  0  0  0  0  0  0  0  0  0  0  0
   -2.7450   10.6120   -4.9770 C   0  0  0  0  0  0  0  0  0  0  0  0
   -2.9370    9.5890   -5.9080 C   0  0  0  0  0  0  0  0  0  0  0  0
  1  2  1  0
  2  3  2  3
  2  4  1  0
  3  5  1  0
  4  6  2  0
  4  7  1  0
  5  8  1  0
  5  9  1  6
  6 10  1  0
  7 11  2  0
  8 12  1  6
  8 13  1  0
 10 14  2  0
 11 14  1  0
 10 15  1  0
 15 16  2  0
 15 17  1  0
 13 18  1  0
 16 19  1  0
 17 20  2  0
 18 21  2  0
 18 22  1  0
 21 23  1  0
 19 24  2  0
 20 24  1  0
 21 25  1  0
 22 26  2  0
 25 27  2  0
 26 27  1  0
M  END
