mac-x0328-mac-x0345
     RDKit          3D

 12 12  0  0  0  0  0  0  0  0999 V2000
   -1.6910   14.6260   -4.0410 O   0  0  0  0  0  0  0  0  0  0  0  0
   -1.7460   14.6760   -2.6990 C   0  0  0  0  0  0  0  0  0  0  0  0
   -0.7730   14.5950   -1.9720 O   0  0  0  0  0  0  0  0  0  0  0  0
   -3.1100   14.8400   -2.1640 C   0  0  0  0  0  0  0  0  0  0  0  0
   -3.2350   15.0240   -0.7980 C   0  0  0  0  0  0  0  0  0  0  0  0
   -4.2340   14.8140   -2.9850 C   0  0  0  0  0  0  0  0  0  0  0  0
   -4.4820   15.1830   -0.2500 C   0  0  0  0  0  0  0  0  0  0  0  0
   -5.4990   14.9690   -2.4330 C   0  0  0  0  0  0  0  0  0  0  0  0
   -6.6070   14.9300   -3.2830 N   0  0  0  0  0  0  0  0  0  0  0  0
   -4.5320   15.4410    1.5990 Br  0  0  0  0  0  0  0  0  0  0  0  0
   -5.6310   15.1530   -1.0450 C   0  0  0  0  0  0  0  0  0  0  0  0
   -6.8950   15.2960   -0.5190 O   0  0  0  0  0  0  0  0  0  0  0  0
  1  2  1  0
  2  3  2  0
  2  4  1  0
  4  5  2  0
  4  6  1  0
  5  7  1  0
  6  8  2  0
  8  9  1  0
  7 10  1  0
  7 11  2  0
  8 11  1  0
 11 12  1  0
M  END
