mac-x0302-diamond-x0962_2_B
     RDKit          3D

 23 24  0  0  0  0  0  0  0  0999 V2000
    1.5130   14.1740   -3.7200 O   0  0  0  0  0  0  0  0  0  0  0  0
    0.4950   14.0850   -2.8480 C   0  0  0  0  0  0  0  0  0  0  0  0
    0.6600   13.5790   -1.7500 O   0  0  0  0  0  0  0  0  0  0  0  0
   -0.8050   14.6630   -3.3670 C   0  0  0  0  0  0  0  0  0  0  0  0
   -1.7830   14.6140   -2.2980 N   0  0  0  0  0  0  0  0  0  0  0  0
   -3.0490   15.1230   -2.4360 C   0  0  0  0  0  0  0  0  0  0  0  0
   -3.4890   15.5910   -3.4800 O   0  0  0  0  0  0  0  0  0  0  0  0
   -3.8850   15.0690   -1.2110 C   0  0  0  0  0  0  0  0  0  0  0  0
   -5.2500   14.8400   -1.3690 C   0  0  0  0  0  0  0  0  0  0  0  0
   -3.3390   15.2290    0.0690 C   0  0  0  0  0  0  0  0  0  0  0  0
   -6.0800   14.7600   -0.2560 C   0  0  0  0  0  0  0  0  0  0  0  0
   -4.1660   15.1600    1.1820 C   0  0  0  0  0  0  0  0  0  0  0  0
   -7.4210   14.5180   -0.2780 O   0  0  0  0  0  0  0  0  0  0  0  0
   -5.5260   14.9240    1.0170 C   0  0  0  0  0  0  0  0  0  0  0  0
   -8.3830   15.4840   -0.6970 C   0  0  0  0  0  0  0  0  0  0  0  0
   -9.6670   15.2260    0.1020 C   0  0  0  0  0  0  0  0  0  0  0  0
   -9.8480   16.1050    1.3510 C   0  0  1  0  0  0  0  0  0  0  0  0
  -11.2700   16.2390    1.5820 N   0  0  0  0  0  0  0  0  0  0  0  0
   -9.1640   15.6240    2.6050 C   0  0  0  0  0  0  0  0  0  0  0  0
   -8.9970   16.3480    3.7760 N   0  0  0  0  0  0  0  0  0  0  0  0
   -8.5630   14.4100    2.8920 C   0  0  0  0  0  0  0  0  0  0  0  0
   -8.3220   15.5620    4.6710 C   0  0  0  0  0  0  0  0  0  0  0  0
   -8.0540   14.3840    4.1640 N   0  0  0  0  0  0  0  0  0  0  0  0
  1  2  1  0
  2  3  2  0
  2  4  1  0
  4  5  1  0
  5  6  1  0
  6  7  2  0
  6  8  1  0
  8  9  2  0
  8 10  1  0
  9 11  1  0
 10 12  2  0
 11 13  1  0
 11 14  2  0
 12 14  1  0
 13 15  1  0
 15 16  1  0
 16 17  1  0
 17 18  1  1
 17 19  1  0
 19 20  1  0
 19 21  2  0
 20 22  1  0
 21 23  1  0
 22 23  2  0
M  END
