mac-x0283-diamond-x0471_0_A
     RDKit          3D

 17 18  0  0  0  0  0  0  0  0999 V2000
   -6.7650   14.6650    2.7210 N   0  0  0  0  0  0  0  0  0  0  0  0
   -6.6380   14.8370    1.3780 C   0  0  0  0  0  0  0  0  0  0  0  0
   -7.7440   14.7870    0.5770 N   0  0  0  0  0  0  0  0  0  0  0  0
   -5.5610   15.0840    0.6130 C   0  0  0  0  0  0  0  0  0  0  0  0
   -9.0000   14.1860    1.0440 C   0  0  0  0  0  0  0  0  0  0  0  0
   -7.3100   14.4900   -0.7690 O   0  0  0  0  0  0  0  0  0  0  0  0
   -6.0620   15.2400   -0.7940 C   0  0  2  0  0  0  0  0  0  0  0  0
   -4.1570   15.2360    0.8990 C   0  0  0  0  0  0  0  0  0  0  0  0
   -8.9860   14.0280    2.5010 N   0  0  0  0  0  0  0  0  0  0  0  0
   -5.0240   14.8970   -1.8270 C   0  0  0  0  0  0  0  0  0  0  0  0
   -3.2840   15.1210   -0.1160 C   0  0  0  0  0  0  0  0  0  0  0  0
   -9.2020   15.1030    3.3570 C   0  0  0  0  0  0  0  0  0  0  0  0
   -3.7180   14.8540   -1.4840 C   0  0  0  0  0  0  0  0  0  0  0  0
   -9.3450   16.2400    2.9340 O   0  0  0  0  0  0  0  0  0  0  0  0
   -9.2860   14.7890    4.8670 C   0  0  0  0  0  0  0  0  0  0  0  0
   -9.5670   13.3150    5.1500 C   0  0  0  0  0  0  0  0  0  0  0  0
   -8.0590   15.2770    5.6350 C   0  0  0  0  0  0  0  0  0  0  0  0
  1  2  1  0
  2  3  1  0
  2  4  2  0
  3  5  1  0
  3  6  1  0
  4  7  1  0
  6  7  1  0
  4  8  1  0
  5  9  1  0
  7 10  1  6
  8 11  2  0
  9 12  1  0
 10 13  2  0
 11 13  1  0
 12 14  2  0
 12 15  1  0
 15 16  1  0
 15 17  1  0
M  END
