mac-x0282-mac-x0590
     RDKit          3D

 17 19  0  0  0  0  0  0  0  0999 V2000
   -2.8370   14.8130   -3.1130 C   0  0  0  0  0  0  0  0  0  0  0  0
   -2.0510   13.5600   -3.6260 C   0  0  0  0  0  0  0  0  0  0  0  0
   -0.7660   13.7440   -4.4880 C   0  0  0  0  0  0  0  0  0  0  0  0
   -3.0250   14.8360   -1.6040 C   0  0  0  0  0  0  0  0  0  0  0  0
   -4.1430   14.9520   -0.7610 C   0  0  0  0  0  0  0  0  0  0  0  0
   -1.9260   14.7220   -0.7620 C   0  0  0  0  0  0  0  0  0  0  0  0
   -2.3360   14.7500    0.5600 C   0  0  0  0  0  0  0  0  0  0  0  0
   -3.6970   14.8940    0.5520 N   0  0  0  0  0  0  0  0  0  0  0  0
   -0.5850   14.5940   -1.0480 C   0  0  0  0  0  0  0  0  0  0  0  0
    0.1340   12.4800   -4.6770 C   0  0  2  0  0  0  0  0  0  0  0  0
    0.2690   14.5020    0.0060 C   0  0  0  0  0  0  0  0  0  0  0  0
   -1.5450   14.6510    1.6460 N   0  0  0  0  0  0  0  0  0  0  0  0
    0.6760   11.9770   -3.3350 C   0  0  0  0  0  0  0  0  0  0  0  0
    1.4150   12.7280   -5.4740 C   0  0  0  0  0  0  0  0  0  0  0  0
   -0.2410   14.5320    1.3020 C   0  0  0  0  0  0  0  0  0  0  0  0
    2.4540   13.0360   -4.4170 C   0  0  0  0  0  0  0  0  0  0  0  0
    2.0780   12.2910   -3.2570 O   0  0  0  0  0  0  0  0  0  0  0  0
  1  2  1  0
  2  3  1  0
  1  4  1  0
  4  5  2  0
  4  6  1  0
  6  7  2  0
  5  8  1  0
  7  8  1  0
  6  9  1  0
 10  3  1  1
  9 11  2  0
  7 12  1  0
 10 13  1  0
 10 14  1  0
 11 15  1  0
 12 15  2  0
 14 16  1  0
 13 17  1  0
 16 17  1  0
M  END
