mac-x0338-mac-x0212
     RDKit          3D

 15 15  0  0  0  0  0  0  0  0999 V2000
   -4.3900   15.7220    2.0430 N   0  0  0  0  0  0  0  0  0  0  0  0
   -4.8480   14.6020    1.1810 C   0  0  1  0  0  0  0  0  0  0  0  0
   -6.3670   14.2090    1.4180 C   0  0  0  0  0  0  0  0  0  0  0  0
   -4.5340   14.7740   -0.2970 C   0  0  0  0  0  0  0  0  0  0  0  0
   -6.5530   12.7010    1.5640 C   0  0  0  0  0  0  0  0  0  0  0  0
   -6.8960   14.8150    2.5940 O   0  0  0  0  0  0  0  0  0  0  0  0
   -7.2010   14.6630    0.3520 O   0  0  0  0  0  0  0  0  0  0  0  0
   -3.2630   14.5280   -0.7700 N   0  0  0  0  0  0  0  0  0  0  0  0
   -5.5640   15.1670   -1.1540 C   0  0  0  0  0  0  0  0  0  0  0  0
   -3.1280   14.6950   -2.1370 C   0  0  0  0  0  0  0  0  0  0  0  0
   -5.3990   15.3220   -2.4770 N   0  0  0  0  0  0  0  0  0  0  0  0
   -1.8120   14.4460   -2.7900 C   0  0  0  0  0  0  0  0  0  0  0  0
   -4.1650   15.0810   -2.9510 C   0  0  0  0  0  0  0  0  0  0  0  0
   -0.7900   14.0840   -2.2430 O   0  0  0  0  0  0  0  0  0  0  0  0
   -1.9090   14.6730   -4.1260 O   0  0  0  0  0  0  0  0  0  0  0  0
  2  1  1  1
  2  3  1  0
  2  4  1  0
  3  5  1  0
  3  6  1  0
  3  7  1  0
  4  8  2  0
  4  9  1  0
  8 10  1  0
  9 11  2  0
 10 12  1  0
 10 13  2  0
 11 13  1  0
 12 14  2  0
 12 15  1  0
M  END
