mac-x0213-mac-x0565
     RDKit          3D

 23 26  0  0  0  0  0  0  0  0999 V2000
   -0.1080   11.5840   -3.6230 O   0  0  0  0  0  0  0  0  0  0  0  0
    0.1750   12.8120   -3.1660 C   0  0  0  0  0  0  0  0  0  0  0  0
    0.7790   12.9510   -2.1100 O   0  0  0  0  0  0  0  0  0  0  0  0
   -0.3020   13.9390   -4.0590 C   0  0  1  0  0  0  0  0  0  0  0  0
   -1.2410   15.0030   -3.4410 C   0  0  1  0  0  0  0  0  0  0  0  0
    0.9220   14.8770   -4.3450 C   0  0  0  0  0  0  0  0  0  0  0  0
   -1.0840   16.1140   -4.3850 C   0  0  0  0  0  0  0  0  0  0  0  0
    0.1960   16.0820   -4.8860 C   0  0  0  0  0  0  0  0  0  0  0  0
   -2.6960   14.9030   -2.9740 C   0  0  0  0  0  0  0  0  0  0  0  0
   -0.6420   15.4260   -2.0990 C   0  0  0  0  0  0  0  0  0  0  0  0
   -1.9940   17.0710   -4.7410 C   0  0  0  0  0  0  0  0  0  0  0  0
    0.6220   17.0640   -5.7550 C   0  0  0  0  0  0  0  0  0  0  0  0
   -2.6790   14.8730   -1.5860 C   0  0  0  0  0  0  0  0  0  0  0  0
   -3.9310   14.8750   -3.6380 C   0  0  0  0  0  0  0  0  0  0  0  0
   -1.4370   14.8940   -1.0420 O   0  0  0  0  0  0  0  0  0  0  0  0
   -1.5930   18.0630   -5.6250 C   0  0  0  0  0  0  0  0  0  0  0  0
   -0.2820   18.0630   -6.1240 C   0  0  0  0  0  0  0  0  0  0  0  0
   -3.8000   14.8330   -0.8090 C   0  0  0  0  0  0  0  0  0  0  0  0
   -5.1070   14.8320   -2.8560 C   0  0  0  0  0  0  0  0  0  0  0  0
   -5.0280   14.8180   -1.4430 C   0  0  0  0  0  0  0  0  0  0  0  0
   -6.2120   14.7900   -0.5500 C   0  0  0  0  0  0  0  0  0  0  0  0
   -5.8580   14.9240    0.7490 O   0  0  0  0  0  0  0  0  0  0  0  0
   -7.3600   14.6680   -0.9270 O   0  0  0  0  0  0  0  0  0  0  0  0
  1  2  1  0
  2  3  2  0
  4  2  1  1
  4  5  1  0
  4  6  1  0
  5  7  1  0
  6  8  1  0
  7  8  2  0
  5  9  1  0
  5 10  1  1
  7 11  1  0
  8 12  1  0
  9 13  2  0
  9 14  1  0
 10 15  1  0
 13 15  1  0
 11 16  2  0
 12 17  2  0
 16 17  1  0
 13 18  1  0
 14 19  2  0
 18 20  2  0
 19 20  1  0
 20 21  1  0
 21 22  1  0
 21 23  2  0
M  END
