mac-x0188-mac-x0412
     RDKit          3D

 21 23  0  0  0  0  0  0  0  0999 V2000
    1.2110   13.0630   -5.3620 C   0  0  0  0  0  0  0  0  0  0  0  0
   -0.0130   13.5150   -4.6750 C   0  0  0  0  0  0  0  0  0  0  0  0
   -1.1640   13.5730   -5.4030 O   0  0  0  0  0  0  0  0  0  0  0  0
   -0.2760   13.9170   -3.3930 C   0  0  0  0  0  0  0  0  0  0  0  0
    0.6840   13.9990   -2.3240 C   0  0  0  0  0  0  0  0  0  0  0  0
   -2.2030   14.0130   -4.5970 N   0  0  0  0  0  0  0  0  0  0  0  0
   -1.6520   14.2180   -3.3870 C   0  0  0  0  0  0  0  0  0  0  0  0
    1.3690   14.9780   -2.1090 O   0  0  0  0  0  0  0  0  0  0  0  0
    0.7670   12.8920   -1.5520 O   0  0  0  0  0  0  0  0  0  0  0  0
   -2.3920   14.7050   -2.1770 C   0  0  1  0  0  0  0  0  0  0  0  0
   -3.6100   15.5590   -2.3920 C   0  0  0  0  0  0  0  0  0  0  0  0
   -2.6000   13.6260   -1.1640 C   0  0  0  0  0  0  0  0  0  0  0  0
   -4.6370   15.5750   -1.5230 C   0  0  0  0  0  0  0  0  0  0  0  0
   -3.6260   13.6300   -0.3190 C   0  0  0  0  0  0  0  0  0  0  0  0
   -4.6910   14.7010   -0.2740 C   0  0  2  0  0  0  0  0  0  0  0  0
   -6.0340   13.9810   -0.4140 C   0  0  0  0  0  0  0  0  0  0  0  0
   -4.5170   15.3350    1.1000 C   0  0  0  0  0  0  0  0  0  0  0  0
   -7.0800   14.5230    0.5010 C   0  0  0  0  0  0  0  0  0  0  0  0
   -5.4670   15.2590    2.0500 C   0  0  0  0  0  0  0  0  0  0  0  0
   -8.2090   14.8400    0.1280 O   0  0  0  0  0  0  0  0  0  0  0  0
   -6.6550   14.6440    1.7840 N   0  0  0  0  0  0  0  0  0  0  0  0
  1  2  1  0
  2  3  1  0
  2  4  2  0
  4  5  1  0
  3  6  1  0
  4  7  1  0
  6  7  2  0
  5  8  2  0
  5  9  1  0
 10  7  1  6
 10 11  1  0
 10 12  1  0
 11 13  2  0
 12 14  2  0
 15 13  1  6
 14 15  1  0
 15 16  1  0
 15 17  1  0
 16 18  1  0
 17 19  2  0
 18 20  2  0
 18 21  1  0
 19 21  1  0
M  END
