mac-x0190-mac-x0263
     RDKit          3D

 14 15  0  0  0  0  0  0  0  0999 V2000
   -9.2960   15.1340    2.4640 O   0  0  0  0  0  0  0  0  0  0  0  0
   -9.0690   14.2520    1.3560 C   0  0  0  0  0  0  0  0  0  0  0  0
   -7.6900   14.5140    0.8400 C   0  0  0  0  0  0  0  0  0  0  0  0
  -10.5960   15.3560    2.7680 C   0  0  0  0  0  0  0  0  0  0  0  0
  -11.3320   14.2730    2.4750 O   0  0  0  0  0  0  0  0  0  0  0  0
  -11.0950   16.3610    3.2380 O   0  0  0  0  0  0  0  0  0  0  0  0
   -7.4210   14.8220   -0.4720 N   0  0  0  0  0  0  0  0  0  0  0  0
   -6.5730   14.4910    1.5420 N   0  0  0  0  0  0  0  0  0  0  0  0
   -6.0690   15.0060   -0.6100 C   0  0  0  0  0  0  0  0  0  0  0  0
   -5.5610   14.7940    0.6630 C   0  0  0  0  0  0  0  0  0  0  0  0
   -5.2730   15.3290   -1.7050 C   0  0  0  0  0  0  0  0  0  0  0  0
   -4.1810   14.9060    0.8810 C   0  0  0  0  0  0  0  0  0  0  0  0
   -3.8990   15.4350   -1.4700 C   0  0  0  0  0  0  0  0  0  0  0  0
   -3.3590   15.2260   -0.1990 C   0  0  0  0  0  0  0  0  0  0  0  0
  1  2  1  0
  2  3  1  0
  1  4  1  0
  4  5  1  0
  4  6  2  0
  3  7  1  0
  3  8  2  0
  7  9  1  0
  8 10  1  0
  9 10  2  0
  9 11  1  0
 10 12  1  0
 11 13  2  0
 12 14  2  0
 13 14  1  0
M  END
