mac-x0588-mac-x0576
     RDKit          3D

 16 18  0  0  0  0  0  0  0  0999 V2000
   -4.5720   15.0890    0.9820 N   0  0  0  0  0  0  0  0  0  0  0  0
   -3.5730   15.4220   -0.0100 C   0  0  1  0  0  0  0  0  0  0  0  0
   -2.2400   14.7050    0.1990 C   0  0  1  0  0  0  0  0  0  0  0  0
   -4.1150   15.0300   -1.2880 N   0  0  0  0  0  0  0  0  0  0  0  0
   -3.1990   15.3330   -2.3870 C   0  0  0  0  0  0  0  0  0  0  0  0
   -1.3270   15.1550   -0.9340 C   0  0  2  0  0  0  0  0  0  0  0  0
   -1.4450   14.9730    1.3910 N   0  0  0  0  0  0  0  0  0  0  0  0
   -1.8900   14.7020   -2.1990 N   0  0  0  0  0  0  0  0  0  0  0  0
   -0.1170   14.4750   -0.5120 N   0  0  0  0  0  0  0  0  0  0  0  0
   -0.1000   14.6110    0.9430 C   0  0  0  0  0  0  0  0  0  0  0  0
   -1.0080   14.9530   -3.3700 C   0  0  0  0  0  0  0  0  0  0  0  0
   -0.5400   16.3910   -3.7000 C   0  0  2  0  0  0  0  0  0  0  0  0
   -1.5690   17.2450   -4.2870 O   0  0  0  0  0  0  0  0  0  0  0  0
    0.6530   16.4200   -4.6530 C   0  0  0  0  0  0  0  0  0  0  0  0
    0.5560   17.8040   -5.2340 C   0  0  0  0  0  0  0  0  0  0  0  0
   -0.9430   18.0400   -5.3090 C   0  0  0  0  0  0  0  0  0  0  0  0
  2  1  1  1
  2  3  1  0
  2  4  1  0
  4  5  1  0
  3  6  1  0
  3  7  1  1
  5  8  1  0
  6  8  1  0
  6  9  1  1
  7 10  1  0
  9 10  1  0
  8 11  1  0
 12 11  1  6
 12 13  1  0
 12 14  1  0
 14 15  1  0
 13 16  1  0
 15 16  1  0
M  END
