mac-x0231-mac-x0379
     RDKit          3D

 24 26  0  0  0  0  0  0  0  0999 V2000
    1.1690   10.7060   -3.3100 O   0  0  0  0  0  0  0  0  0  0  0  0
    1.7440   11.9080   -3.2650 C   0  0  0  0  0  0  0  0  0  0  0  0
    1.7730   12.5040   -2.1980 O   0  0  0  0  0  0  0  0  0  0  0  0
    2.2970   12.4720   -4.5440 C   0  0  0  0  0  0  0  0  0  0  0  0
    1.7060   13.8320   -4.6250 C   0  0  0  0  0  0  0  0  0  0  0  0
    0.3100   13.9050   -4.9750 C   0  0  0  0  0  0  0  0  0  0  0  0
    2.4110   14.8380   -4.2520 N   0  0  0  0  0  0  0  0  0  0  0  0
   -0.3040   15.1110   -4.7450 C   0  0  0  0  0  0  0  0  0  0  0  0
    1.8230   16.0470   -4.2130 N   0  0  0  0  0  0  0  0  0  0  0  0
   -0.3760   12.7820   -5.4720 C   0  0  0  0  0  0  0  0  0  0  0  0
    0.4860   16.2720   -4.2860 C   0  0  0  0  0  0  0  0  0  0  0  0
   -1.6420   15.1170   -4.9410 C   0  0  0  0  0  0  0  0  0  0  0  0
   -1.7260   12.8470   -5.7240 C   0  0  0  0  0  0  0  0  0  0  0  0
    0.0300   17.3850   -4.0490 O   0  0  0  0  0  0  0  0  0  0  0  0
   -2.4950   16.0520   -4.6580 N   0  0  0  0  0  0  0  0  0  0  0  0
   -2.3540   14.0200   -5.4370 C   0  0  0  0  0  0  0  0  0  0  0  0
   -2.6520   15.3710   -3.5530 C   0  0  0  0  0  0  0  0  0  0  0  0
   -1.7110   14.4160   -3.4010 O   0  0  0  0  0  0  0  0  0  0  0  0
   -3.5020   15.2920   -2.4440 C   0  0  0  0  0  0  0  0  0  0  0  0
   -4.8490   15.3160   -2.4890 C   0  0  0  0  0  0  0  0  0  0  0  0
   -2.9810   15.0920   -0.8230 S   0  0  0  0  0  0  0  0  0  0  0  0
   -4.6200   15.0840   -0.3500 C   0  0  0  0  0  0  0  0  0  0  0  0
   -5.4970   15.2050   -1.3030 N   0  0  0  0  0  0  0  0  0  0  0  0
   -4.9830   14.9400    1.0690 C   0  0  0  0  0  0  0  0  0  0  0  0
  1  2  1  0
  2  3  2  0
  2  4  1  0
  4  5  1  0
  5  6  1  0
  5  7  2  0
  6  8  2  0
  7  9  1  0
  6 10  1  0
  8 11  1  0
  9 11  1  0
  8 12  1  0
 10 13  2  0
 11 14  2  0
 12 15  1  0
 12 16  2  0
 13 16  1  0
 15 17  2  3
 17 18  1  0
 17 19  1  0
 19 20  2  0
 19 21  1  0
 21 22  1  0
 20 23  1  0
 22 23  2  0
 22 24  1  0
M  END
