mac-x0204-mac-x0397
     RDKit          3D

 23 25  0  0  0  0  0  0  0  0999 V2000
    1.0580   12.7990   -2.6230 O   0  0  0  0  0  0  0  0  0  0  0  0
    0.4800   14.0500   -2.9140 C   0  0  0  0  0  0  0  0  0  0  0  0
    1.5080   14.9740   -3.1970 O   0  0  0  0  0  0  0  0  0  0  0  0
   -0.3600   14.5490   -1.7800 C   0  0  0  0  0  0  0  0  0  0  0  0
   -0.6340   13.9940   -3.9510 C   0  0  0  0  0  0  0  0  0  0  0  0
   -1.1490   15.1820   -4.5100 C   0  0  0  0  0  0  0  0  0  0  0  0
   -1.2200   12.7990   -4.3780 C   0  0  0  0  0  0  0  0  0  0  0  0
   -1.6580   14.7670   -2.5520 C   0  0  0  0  0  0  0  0  0  0  0  0
   -2.1920   15.1310   -5.4250 C   0  0  0  0  0  0  0  0  0  0  0  0
   -2.2380   12.7240   -5.2780 N   0  0  0  0  0  0  0  0  0  0  0  0
   -2.8650   14.8410   -1.7370 C   0  0  0  0  0  0  0  0  0  0  0  0
   -2.6590   16.3070   -5.9320 O   0  0  0  0  0  0  0  0  0  0  0  0
   -2.7020   13.8900   -5.7770 C   0  0  0  0  0  0  0  0  0  0  0  0
   -4.0850   14.9850   -2.3850 C   0  0  0  0  0  0  0  0  0  0  0  0
   -2.7640   14.7600   -0.3650 C   0  0  0  0  0  0  0  0  0  0  0  0
   -3.9370   14.8190    0.3560 C   0  0  0  0  0  0  0  0  0  0  0  0
   -5.2320   15.0360   -1.6320 C   0  0  0  0  0  0  0  0  0  0  0  0
   -6.7870   15.2030   -2.3090 Cl  0  0  0  0  0  0  0  0  0  0  0  0
   -5.1830   14.9480   -0.2480 C   0  0  0  0  0  0  0  0  0  0  0  0
   -4.1360   14.7500    2.0310 S   0  0  0  0  0  0  0  0  0  0  0  0
   -5.8320   14.8810    1.8310 C   0  0  0  0  0  0  0  0  0  0  0  0
   -6.2480   14.9740    0.6120 N   0  0  0  0  0  0  0  0  0  0  0  0
   -6.6820   14.8960    2.8590 N   0  0  0  0  0  0  0  0  0  0  0  0
  2  1  1  0
  2  3  1  0
  2  4  1  0
  2  5  1  0
  5  6  2  0
  5  7  1  0
  4  8  1  0
  6  9  1  0
  7 10  2  0
  8 11  1  0
  9 12  1  0
  9 13  2  0
 10 13  1  0
 11 14  2  0
 11 15  1  0
 15 16  2  0
 14 17  1  0
 17 18  1  0
 16 19  1  0
 17 19  2  0
 16 20  1  0
 20 21  1  0
 19 22  1  0
 21 22  2  0
 21 23  1  0
M  END
