mac-x0411-mac-x0510
     RDKit          3D

 26 28  0  0  0  0  0  0  0  0999 V2000
    0.6220    8.9540   -7.7100 Cl  0  0  0  0  0  0  0  0  0  0  0  0
   -0.6900    9.6250   -6.7990 C   0  0  0  0  0  0  0  0  0  0  0  0
   -0.6180   10.8900   -6.1560 C   0  0  0  0  0  0  0  0  0  0  0  0
   -1.8460    8.8570   -6.7260 C   0  0  0  0  0  0  0  0  0  0  0  0
    0.5690   11.5890   -6.2660 O   0  0  0  0  0  0  0  0  0  0  0  0
   -1.7500   11.3890   -5.4370 C   0  0  0  0  0  0  0  0  0  0  0  0
   -2.9440    9.3270   -6.0250 C   0  0  0  0  0  0  0  0  0  0  0  0
   -1.8450   12.7380   -4.7060 C   0  0  0  0  0  0  0  0  0  0  0  0
    0.8640   12.5500   -5.2470 C   0  0  0  0  0  0  0  0  0  0  0  0
   -2.9000   10.5710   -5.3940 C   0  0  0  0  0  0  0  0  0  0  0  0
    0.8790   11.9370   -3.8550 C   0  0  0  0  0  0  0  0  0  0  0  0
   -3.2990   13.2930   -4.5560 C   0  0  0  0  0  0  0  0  0  0  0  0
    1.5100   12.6740   -2.9140 O   0  0  0  0  0  0  0  0  0  0  0  0
    0.3930   10.8660   -3.5350 O   0  0  0  0  0  0  0  0  0  0  0  0
   -3.4640   14.6790   -3.8720 C   0  0  0  0  0  0  0  0  0  0  0  0
   -2.7280   14.7240   -2.6220 N   0  0  0  0  0  0  0  0  0  0  0  0
   -3.1990   14.8770   -1.4360 C   0  0  0  0  0  0  0  0  0  0  0  0
   -2.2780   14.8310   -0.3680 C   0  0  0  0  0  0  0  0  0  0  0  0
   -4.4990   15.0570   -1.0080 N   0  0  0  0  0  0  0  0  0  0  0  0
   -4.9200   14.9710    0.3130 C   0  0  0  0  0  0  0  0  0  0  0  0
   -2.6470   14.7950    0.9370 C   0  0  0  0  0  0  0  0  0  0  0  0
   -0.9180   14.8110   -0.3610 N   0  0  0  0  0  0  0  0  0  0  0  0
   -6.1140   15.0220    0.5910 O   0  0  0  0  0  0  0  0  0  0  0  0
   -3.9610   14.8130    1.2860 N   0  0  0  0  0  0  0  0  0  0  0  0
   -1.5770   14.7390    1.7630 N   0  0  0  0  0  0  0  0  0  0  0  0
   -0.5400   14.7580    0.9540 C   0  0  0  0  0  0  0  0  0  0  0  0
  1  2  1  0
  2  3  2  0
  2  4  1  0
  3  5  1  0
  3  6  1  0
  4  7  2  0
  6  8  1  0
  5  9  1  0
  6 10  2  0
  7 10  1  0
  9 11  1  0
  8 12  1  0
 11 13  1  0
 11 14  2  0
 12 15  1  0
 15 16  1  0
 16 17  2  3
 17 18  1  0
 17 19  1  0
 19 20  1  0
 18 21  2  0
 18 22  1  0
 20 23  2  0
 20 24  1  0
 21 24  1  0
 21 25  1  0
 22 26  1  0
 25 26  2  0
M  END
