mac-x0360-mac-x0338
     RDKit          3D

 20 21  0  0  0  0  0  0  0  0999 V2000
   -7.1920   11.7720    1.6410 Cl  0  0  0  0  0  0  0  0  0  0  0  0
   -5.9710   11.8840    0.4260 C   0  0  0  0  0  0  0  0  0  0  0  0
   -6.0410   11.0360   -0.6750 C   0  0  0  0  0  0  0  0  0  0  0  0
   -4.9270   12.8100    0.5430 C   0  0  0  0  0  0  0  0  0  0  0  0
   -3.9460   12.8790   -0.4660 C   0  0  0  0  0  0  0  0  0  0  0  0
   -5.0610   11.1080   -1.6640 C   0  0  0  0  0  0  0  0  0  0  0  0
   -5.1500   10.0490   -3.0150 Cl  0  0  0  0  0  0  0  0  0  0  0  0
   -2.6150   14.0650   -0.3510 S   0  0  1  0  0  0  0  0  0  0  0  0
   -4.0110   12.0250   -1.5710 C   0  0  0  0  0  0  0  0  0  0  0  0
   -1.1270   13.3490   -0.1220 N   0  0  0  0  0  0  0  0  0  0  0  0
   -2.3910   14.6320   -1.6570 O   0  0  0  0  0  0  0  0  0  0  0  0
   -2.7990   14.8430    0.9350 N   0  0  0  0  0  0  0  0  0  0  0  0
   -4.0420   15.4780    0.9600 C   0  0  0  0  0  0  0  0  0  0  0  0
   -4.4370   16.1080    1.9280 O   0  0  0  0  0  0  0  0  0  0  0  0
   -4.8790   15.3530   -0.2780 C   0  0  0  0  0  0  0  0  0  0  0  0
   -4.1990   15.4950   -1.4420 N   0  0  0  0  0  0  0  0  0  0  0  0
   -6.2350   15.0970   -0.2540 C   0  0  0  0  0  0  0  0  0  0  0  0
   -4.9140   15.3590   -2.5610 C   0  0  0  0  0  0  0  0  0  0  0  0
   -6.9650   14.9700   -1.3950 N   0  0  0  0  0  0  0  0  0  0  0  0
   -6.2690   15.1040   -2.5450 C   0  0  0  0  0  0  0  0  0  0  0  0
  1  2  1  0
  2  3  2  0
  2  4  1  0
  4  5  2  0
  3  6  1  0
  6  7  1  0
  5  8  1  0
  5  9  1  0
  6  9  2  0
  8 10  1  1
  8 11  2  0
  8 12  2  0
 12 13  1  0
 13 14  2  0
 13 15  1  0
 15 16  2  0
 15 17  1  0
 16 18  1  0
 17 19  2  0
 18 20  2  0
 19 20  1  0
M  END
