mac-x0182-mac-x0590
     RDKit          3D

 29 33  0  0  0  0  0  0  0  0999 V2000
    0.2300    9.5880   -3.8560 O   0  0  0  0  0  0  0  0  0  0  0  0
   -0.7240    9.8390   -4.4910 C   0  0  0  0  0  0  0  0  0  0  0  0
   -1.9030   10.3730   -4.0800 N   0  0  0  0  0  0  0  0  0  0  0  0
   -0.9120    9.7770   -5.8960 C   0  0  0  0  0  0  0  0  0  0  0  0
   -1.4710   11.8440   -4.5660 S   0  0  0  0  0  0  0  0  0  0  0  0
   -1.4270   11.0130   -6.1280 C   0  0  0  0  0  0  0  0  0  0  0  0
   -0.6970    8.8140   -6.8530 C   0  0  0  0  0  0  0  0  0  0  0  0
   -1.1190   13.5100   -4.1590 C   0  0  0  0  0  0  0  0  0  0  0  0
   -1.8140   11.5400   -3.0110 O   0  0  0  0  0  0  0  0  0  0  0  0
   -1.7940   11.3850   -7.3890 C   0  0  0  0  0  0  0  0  0  0  0  0
   -1.0560    9.1580   -8.1520 C   0  0  0  0  0  0  0  0  0  0  0  0
   -1.1470   14.3450   -2.8460 C   0  0  0  0  0  0  0  0  0  0  0  0
   -0.6120   14.3150   -5.3030 C   0  0  0  0  0  0  0  0  0  0  0  0
   -1.6030   10.4330   -8.4090 C   0  0  0  0  0  0  0  0  0  0  0  0
   -2.2410   14.0050   -1.9440 N   0  0  0  0  0  0  0  0  0  0  0  0
    0.8520   13.8600   -5.3730 C   0  0  2  0  0  0  0  0  0  0  0  0
   -3.4720   14.8220   -2.0160 C   0  0  0  0  0  0  0  0  0  0  0  0
   -1.7980   13.8850   -0.5730 C   0  0  2  0  0  0  0  0  0  0  0  0
    1.0810   12.3630   -5.1200 C   0  0  0  0  0  0  0  0  0  0  0  0
    1.7500   14.4780   -4.3090 C   0  0  0  0  0  0  0  0  0  0  0  0
   -4.4920   14.5520   -0.9810 N   0  0  0  0  0  0  0  0  0  0  0  0
   -2.5350   14.6940    0.4550 C   0  0  1  0  0  0  0  0  0  0  0  0
   -0.4760   14.4280   -0.3560 N   0  0  0  0  0  0  0  0  0  0  0  0
    2.6810   13.3530   -3.9220 C   0  0  0  0  0  0  0  0  0  0  0  0
    1.8250   12.2400   -3.8990 O   0  0  0  0  0  0  0  0  0  0  0  0
   -4.0050   14.3270    0.3680 C   0  0  1  0  0  0  0  0  0  0  0  0
   -1.7100   14.4580    1.6520 N   0  0  0  0  0  0  0  0  0  0  0  0
   -0.3430   14.3940    1.0940 C   0  0  0  0  0  0  0  0  0  0  0  0
   -4.8530   15.1410    1.2160 N   0  0  0  0  0  0  0  0  0  0  0  0
  1  2  2  0
  2  3  1  0
  2  4  1  0
  3  5  1  0
  4  6  2  0
  5  6  1  0
  4  7  1  0
  5  8  2  0
  5  9  2  0
  6 10  1  0
  7 11  2  0
  8 12  1  0
  8 13  1  0
 10 14  2  0
 11 14  1  0
 12 15  1  0
 16 13  1  1
 15 17  1  0
 15 18  1  0
 16 19  1  0
 16 20  1  0
 17 21  1  0
 18 22  1  0
 18 23  1  6
 20 24  1  0
 19 25  1  0
 24 25  1  0
 21 26  1  0
 22 26  1  0
 22 27  1  1
 23 28  1  0
 27 28  1  0
 26 29  1  1
M  END
