mac-x0496-diamond-x0950_1_A
     RDKit          3D

 27 28  0  0  0  0  0  0  0  0999 V2000
   -9.9100   17.8030    4.7600 C   0  0  0  0  0  0  0  0  0  0  0  0
   -9.9860   16.7990    3.6810 C   0  0  0  0  0  0  0  0  0  0  0  0
  -11.0510   16.6560    2.8840 N   0  0  0  0  0  0  0  0  0  0  0  0
   -8.9610   15.9310    3.4220 N   0  0  0  0  0  0  0  0  0  0  0  0
  -10.6830   15.6170    2.0260 O   0  0  0  0  0  0  0  0  0  0  0  0
   -9.4320   15.2320    2.4100 C   0  0  0  0  0  0  0  0  0  0  0  0
   -8.7960   14.1170    1.6650 C   0  0  0  0  0  0  0  0  0  0  0  0
   -7.3690   14.3600    1.5440 N   0  0  0  0  0  0  0  0  0  0  0  0
   -6.8160   14.6500    0.3150 C   0  0  0  0  0  0  0  0  0  0  0  0
   -7.4890   14.8220   -0.6920 O   0  0  0  0  0  0  0  0  0  0  0  0
   -5.3380   14.7500    0.2410 C   0  0  0  0  0  0  0  0  0  0  0  0
   -4.5340   14.7130    1.3860 C   0  0  0  0  0  0  0  0  0  0  0  0
   -4.7530   14.8870   -1.0180 C   0  0  0  0  0  0  0  0  0  0  0  0
   -3.1500   14.8050    1.2800 C   0  0  0  0  0  0  0  0  0  0  0  0
   -3.3670   14.9780   -1.1220 C   0  0  0  0  0  0  0  0  0  0  0  0
   -2.7560   15.1250   -2.4480 C   0  0  0  0  0  0  0  0  0  0  0  0
   -2.5620   14.9350    0.0250 C   0  0  0  0  0  0  0  0  0  0  0  0
   -1.5610   14.9710   -2.8660 N   0  0  0  0  0  0  0  0  0  0  0  0
   -3.6650   15.5070   -3.3570 O   0  0  0  0  0  0  0  0  0  0  0  0
   -1.2910   15.2460   -4.2770 C   0  0  0  0  0  0  0  0  0  0  0  0
   -0.6920   13.9960   -4.9070 C   0  0  0  0  0  0  0  0  0  0  0  0
    0.8270   13.9170   -4.8040 C   0  0  0  0  0  0  0  0  0  0  0  0
    1.3610   12.5120   -4.5470 C   0  0  2  0  0  0  0  0  0  0  0  0
    0.7920   11.6550   -5.5420 O   0  0  0  0  0  0  0  0  0  0  0  0
    0.9660   12.0130   -3.1520 C   0  0  0  0  0  0  0  0  0  0  0  0
    0.2880   11.0370   -2.8710 O   0  0  0  0  0  0  0  0  0  0  0  0
    1.4640   12.7880   -2.1690 O   0  0  0  0  0  0  0  0  0  0  0  0
  1  2  1  0
  2  3  2  0
  2  4  1  0
  3  5  1  0
  4  6  2  0
  5  6  1  0
  6  7  1  0
  7  8  1  0
  8  9  1  0
  9 10  2  0
  9 11  1  0
 11 12  2  0
 11 13  1  0
 12 14  1  0
 13 15  2  0
 15 16  1  0
 14 17  2  0
 15 17  1  0
 16 18  2  3
 16 19  1  0
 18 20  1  0
 20 21  1  0
 21 22  1  0
 22 23  1  0
 23 24  1  6
 23 25  1  0
 25 26  2  0
 25 27  1  0
M  END
