mac-x0567-diamond-x0766_0_A
     RDKit          3D

 17 19  0  0  0  0  0  0  0  0999 V2000
    0.3760   13.5940    0.1890 N   0  0  0  0  0  0  0  0  0  0  0  0
   -0.8170   14.2080    0.3650 C   0  0  0  0  0  0  0  0  0  0  0  0
   -1.4740   14.4440    1.5680 N   0  0  0  0  0  0  0  0  0  0  0  0
   -1.5250   14.6650   -0.6540 C   0  0  0  0  0  0  0  0  0  0  0  0
   -2.4170   15.2630    1.3420 N   0  0  0  0  0  0  0  0  0  0  0  0
   -2.7070   15.1670    0.0040 C   0  0  0  0  0  0  0  0  0  0  0  0
   -1.3220   14.7050   -2.1790 C   0  0  2  0  0  0  0  0  0  0  0  0
   -3.8320   15.4420   -0.6520 C   0  0  0  0  0  0  0  0  0  0  0  0
   -2.7480   14.8570   -2.8060 C   0  0  0  0  0  0  0  0  0  0  0  0
   -0.1910   13.7130   -2.7380 C   0  0  1  0  0  0  0  0  0  0  0  0
   -0.5240   15.9750   -2.6980 C   0  0  0  0  0  0  0  0  0  0  0  0
   -0.0950   12.2360   -2.4790 C   0  0  0  0  0  0  0  0  0  0  0  0
   -3.8690   15.2040   -2.0860 C   0  0  0  0  0  0  0  0  0  0  0  0
    0.1390   14.1360   -4.1610 C   0  0  0  0  0  0  0  0  0  0  0  0
    0.4310   15.5910   -3.8760 C   0  0  0  0  0  0  0  0  0  0  0  0
    0.8090   11.7170   -1.8690 O   0  0  0  0  0  0  0  0  0  0  0  0
   -1.0740   11.4720   -2.9820 O   0  0  0  0  0  0  0  0  0  0  0  0
  1  2  1  0
  2  3  1  0
  2  4  2  0
  3  5  2  0
  4  6  1  0
  5  6  1  0
  4  7  1  0
  6  8  2  0
  7  9  1  6
  7 10  1  0
  7 11  1  0
 10 12  1  6
  8 13  1  0
  9 13  2  0
 10 14  1  0
 11 15  1  0
 14 15  1  0
 12 16  2  0
 12 17  1  0
M  END
