mac-x0433-mac-x0527
     RDKit          3D

 19 20  0  0  0  0  0  0  0  0999 V2000
   -2.9940   15.1950    0.5110 C   0  0  0  0  0  0  0  0  0  0  0  0
   -4.1680   14.6200   -0.3020 C   0  0  1  0  0  0  0  0  0  0  0  0
   -5.3510   14.6080    0.6940 C   0  0  0  0  0  0  0  0  0  0  0  0
   -4.4310   15.3060   -1.6010 N   0  0  0  0  0  0  0  0  0  0  0  0
   -3.5150   15.0600   -2.6960 C   0  0  0  0  0  0  0  0  0  0  0  0
   -5.8350   15.3370   -1.9610 C   0  0  1  0  0  0  0  0  0  0  0  0
   -6.7400   14.6190    0.0500 C   0  0  2  0  0  0  0  0  0  0  0  0
   -7.8020   13.8290    0.8030 C   0  0  0  0  0  0  0  0  0  0  0  0
   -6.0230   14.9780   -3.3340 N   0  0  0  0  0  0  0  0  0  0  0  0
   -3.8440   15.2370   -3.8630 O   0  0  0  0  0  0  0  0  0  0  0  0
   -2.2330   14.6080   -2.4420 N   0  0  0  0  0  0  0  0  0  0  0  0
   -6.5720   14.2970   -1.3360 N   0  0  0  0  0  0  0  0  0  0  0  0
   -1.1990   14.6590   -3.4730 C   0  0  0  0  0  0  0  0  0  0  0  0
   -1.0680   13.3740   -4.2830 C   0  0  0  0  0  0  0  0  0  0  0  0
   -1.9430   12.2940   -4.0650 C   0  0  0  0  0  0  0  0  0  0  0  0
   -0.0690   13.2350   -5.2660 C   0  0  0  0  0  0  0  0  0  0  0  0
   -1.8200   11.1150   -4.8080 C   0  0  0  0  0  0  0  0  0  0  0  0
    0.0530   12.0550   -6.0070 C   0  0  0  0  0  0  0  0  0  0  0  0
   -0.8260   10.9940   -5.7750 C   0  0  0  0  0  0  0  0  0  0  0  0
  2  1  1  1
  2  3  1  0
  2  4  1  0
  4  5  1  0
  4  6  1  0
  3  7  1  0
  7  8  1  1
  6  9  1  6
  5 10  2  0
  5 11  1  0
  6 12  1  0
  7 12  1  0
 11 13  1  0
 13 14  1  0
 14 15  2  0
 14 16  1  0
 15 17  1  0
 16 18  2  0
 17 19  2  0
 18 19  1  0
M  END
