mac-x0131-diamond-x0962_0_A
     RDKit          3D

 24 27  0  0  0  0  0  0  0  0999 V2000
   -2.9720   15.2140   -4.4530 C   0  0  0  0  0  0  0  0  0  0  0  0
   -2.5770   15.0660   -3.0180 C   0  0  0  0  0  0  0  0  0  0  0  0
   -3.3770   15.0880   -1.8980 C   0  0  0  0  0  0  0  0  0  0  0  0
   -1.2740   14.8730   -2.5960 N   0  0  0  0  0  0  0  0  0  0  0  0
   -4.8640   15.2840   -1.9430 C   0  0  0  0  0  0  0  0  0  0  0  0
   -0.1160   14.7550   -3.4550 C   0  0  0  0  0  0  0  0  0  0  0  0
   -2.5130   14.8910   -0.7540 C   0  0  0  0  0  0  0  0  0  0  0  0
   -1.2230   14.7870   -1.2160 C   0  0  0  0  0  0  0  0  0  0  0  0
   -2.6680   14.7830    0.6200 C   0  0  0  0  0  0  0  0  0  0  0  0
   -0.1250   14.6250   -0.4460 N   0  0  0  0  0  0  0  0  0  0  0  0
   -0.1360   13.3020   -3.7390 C   0  0  0  0  0  0  0  0  0  0  0  0
   -1.6150   14.6290    1.4650 N   0  0  0  0  0  0  0  0  0  0  0  0
   -0.4070   14.5680    0.8780 C   0  0  0  0  0  0  0  0  0  0  0  0
    0.7150   12.2450   -3.4850 C   0  0  0  0  0  0  0  0  0  0  0  0
   -1.2490   12.8560   -4.3910 O   0  0  0  0  0  0  0  0  0  0  0  0
   -3.9730   14.7990    1.0500 N   0  0  0  0  0  0  0  0  0  0  0  0
   -1.1180   11.5210   -4.5490 C   0  0  0  0  0  0  0  0  0  0  0  0
    0.0660   11.0970   -4.0090 C   0  0  0  0  0  0  0  0  0  0  0  0
   -4.8540   14.0670    0.3200 C   0  0  0  0  0  0  0  0  0  0  0  0
   -4.6770   15.3710    2.0640 C   0  0  0  0  0  0  0  0  0  0  0  0
   -4.4950   13.3130   -0.8260 C   0  0  0  0  0  0  0  0  0  0  0  0
   -5.9560   15.0270    1.9970 N   0  0  0  0  0  0  0  0  0  0  0  0
   -6.0670   14.2200    0.9060 C   0  0  0  0  0  0  0  0  0  0  0  0
   -4.1200   12.7510   -1.7720 N   0  0  0  0  0  0  0  0  0  0  0  0
  1  2  1  0
  2  3  2  0
  2  4  1  0
  3  5  1  0
  4  6  1  0
  3  7  1  0
  4  8  1  0
  7  8  2  0
  7  9  1  0
  8 10  1  0
  6 11  1  0
  9 12  2  0
 10 13  2  0
 12 13  1  0
 11 14  2  0
 11 15  1  0
  9 16  1  0
 15 17  1  0
 14 18  1  0
 17 18  2  0
 16 19  1  0
 16 20  1  0
 19 21  1  0
 20 22  2  0
 19 23  2  0
 22 23  1  0
 21 24  3  0
M  END
