mac-x0132-mac-x0231
     RDKit          3D

 27 30  0  0  0  0  0  0  0  0999 V2000
   -4.3060   15.1330    1.9810 N   0  0  0  0  0  0  0  0  0  0  0  0
   -5.3080   14.9450    1.0170 C   0  0  0  0  0  0  0  0  0  0  0  0
   -6.5560   14.7560    1.4710 N   0  0  0  0  0  0  0  0  0  0  0  0
   -4.9950   14.9580   -0.3520 C   0  0  0  0  0  0  0  0  0  0  0  0
   -6.0740   14.7620   -1.2190 C   0  0  0  0  0  0  0  0  0  0  0  0
   -7.5020   14.5830    0.5490 C   0  0  0  0  0  0  0  0  0  0  0  0
   -3.7020   15.1450   -0.8800 C   0  0  0  0  0  0  0  0  0  0  0  0
   -7.3240   14.5780   -0.7780 N   0  0  0  0  0  0  0  0  0  0  0  0
   -5.8440   14.7460   -2.5980 C   0  0  0  0  0  0  0  0  0  0  0  0
   -3.4920   15.1190   -2.2590 C   0  0  0  0  0  0  0  0  0  0  0  0
   -4.5620   14.9120   -3.1500 C   0  0  0  0  0  0  0  0  0  0  0  0
   -4.2820   14.8530   -4.6590 C   0  0  0  0  0  0  0  0  0  0  0  0
   -2.8340   14.6070   -4.7000 C   0  0  0  0  0  0  0  0  0  0  0  0
   -1.9390   15.6780   -4.6740 C   0  0  0  0  0  0  0  0  0  0  0  0
   -2.3800   13.2950   -4.7290 C   0  0  0  0  0  0  0  0  0  0  0  0
   -0.5790   15.4160   -4.6440 C   0  0  0  0  0  0  0  0  0  0  0  0
   -1.0260   13.0390   -4.6990 C   0  0  0  0  0  0  0  0  0  0  0  0
   -0.1290   14.1040   -4.6400 C   0  0  0  0  0  0  0  0  0  0  0  0
    0.3980   16.5120   -4.5970 C   0  0  0  0  0  0  0  0  0  0  0  0
    0.0600   17.6860   -4.7020 O   0  0  0  0  0  0  0  0  0  0  0  0
    1.3130   13.8860   -4.5450 C   0  0  0  0  0  0  0  0  0  0  0  0
    1.6960   16.1240   -4.4290 N   0  0  0  0  0  0  0  0  0  0  0  0
    1.7990   12.4670   -4.4950 C   0  0  0  0  0  0  0  0  0  0  0  0
    2.1620   14.8470   -4.4300 N   0  0  0  0  0  0  0  0  0  0  0  0
    1.3870   11.9070   -3.1680 C   0  0  0  0  0  0  0  0  0  0  0  0
    0.9340   10.6420   -3.2100 O   0  0  0  0  0  0  0  0  0  0  0  0
    1.4250   12.4900   -2.0980 O   0  0  0  0  0  0  0  0  0  0  0  0
  1  2  1  0
  2  3  2  0
  2  4  1  0
  4  5  2  0
  3  6  1  0
  4  7  1  0
  5  8  1  0
  6  8  2  0
  5  9  1  0
  7 10  2  0
  9 11  2  0
 10 11  1  0
 11 12  1  0
 12 13  1  0
 13 14  2  0
 13 15  1  0
 14 16  1  0
 15 17  2  0
 16 18  2  0
 17 18  1  0
 16 19  1  0
 19 20  2  0
 18 21  1  0
 19 22  1  0
 21 23  1  0
 21 24  2  0
 22 24  1  0
 23 25  1  0
 25 26  1  0
 25 27  2  0
M  END
