mac-x0193-mac-x0321
     RDKit          3D

 25 26  0  0  0  0  0  0  0  0999 V2000
    0.6930   10.7720   -3.0630 O   0  0  0  0  0  0  0  0  0  0  0  0
    0.6460   12.0990   -3.2670 C   0  0  0  0  0  0  0  0  0  0  0  0
    0.6630   12.8090   -2.2060 N   0  0  0  0  0  0  0  0  0  0  0  0
    0.5630   12.5330   -4.7250 C   0  0  0  0  0  0  0  0  0  0  0  0
    0.2080   11.4820   -5.6570 N   0  0  0  0  0  0  0  0  0  0  0  0
    0.5500   14.2630   -2.3320 C   0  0  0  0  0  0  0  0  0  0  0  0
    0.7980   11.2900   -6.8540 C   0  0  0  0  0  0  0  0  0  0  0  0
   -0.7180   14.7680   -1.8730 O   0  0  0  0  0  0  0  0  0  0  0  0
    1.9160   11.7240   -6.9600 O   0  0  0  0  0  0  0  0  0  0  0  0
    0.1100   10.6190   -7.8280 N   0  0  0  0  0  0  0  0  0  0  0  0
   -1.7630   14.7250   -2.7450 C   0  0  0  0  0  0  0  0  0  0  0  0
   -1.7000   14.5150   -3.9430 O   0  0  0  0  0  0  0  0  0  0  0  0
    0.7870   10.1440   -9.0300 C   0  0  0  0  0  0  0  0  0  0  0  0
   -3.0460   14.9780   -2.0300 C   0  0  0  0  0  0  0  0  0  0  0  0
    1.4010    8.7740   -8.7640 C   0  0  0  0  0  0  0  0  0  0  0  0
   -0.1210   10.0740  -10.2540 C   0  0  0  0  0  0  0  0  0  0  0  0
   -3.1030   15.1000   -0.6420 C   0  0  0  0  0  0  0  0  0  0  0  0
   -4.2210   15.1070   -2.7810 C   0  0  0  0  0  0  0  0  0  0  0  0
    2.1640    8.1730   -9.9510 C   0  0  0  0  0  0  0  0  0  0  0  0
    0.6420    9.5170  -11.4620 C   0  0  0  0  0  0  0  0  0  0  0  0
   -4.3170   15.3410   -0.0260 C   0  0  0  0  0  0  0  0  0  0  0  0
   -5.4410   15.3560   -2.1470 C   0  0  0  0  0  0  0  0  0  0  0  0
   -4.3530   15.5000    1.6690 Cl  0  0  0  0  0  0  0  0  0  0  0  0
    1.3100    8.1620  -11.2070 C   0  0  0  0  0  0  0  0  0  0  0  0
   -5.4870   15.4700   -0.7650 C   0  0  0  0  0  0  0  0  0  0  0  0
  1  2  1  0
  2  3  2  3
  2  4  1  0
  4  5  1  0
  3  6  1  0
  5  7  1  0
  6  8  1  0
  7  9  2  0
  7 10  1  0
  8 11  1  0
 11 12  2  0
 10 13  1  0
 11 14  1  0
 13 15  1  0
 13 16  1  0
 14 17  2  0
 14 18  1  0
 15 19  1  0
 16 20  1  0
 17 21  1  0
 18 22  2  0
 21 23  1  0
 19 24  1  0
 20 24  1  0
 21 25  2  0
 22 25  1  0
M  END
