mac-x0271-mac-x0212
     RDKit          3D

 20 21  0  0  0  0  0  0  0  0999 V2000
   -4.2080   15.0470   -3.6890 O   0  0  0  0  0  0  0  0  0  0  0  0
   -4.9110   14.9640   -2.5140 C   0  0  0  0  0  0  0  0  0  0  0  0
   -4.3220   14.6050   -1.3010 C   0  0  0  0  0  0  0  0  0  0  0  0
   -6.2690   15.2560   -2.6060 C   0  0  0  0  0  0  0  0  0  0  0  0
   -2.8540   14.2970   -1.3080 C   0  0  0  0  0  0  0  0  0  0  0  0
   -7.0700   15.2120   -1.4840 C   0  0  0  0  0  0  0  0  0  0  0  0
   -5.1790   14.5500   -0.1430 C   0  0  0  0  0  0  0  0  0  0  0  0
   -4.7920   14.1750    1.2010 N   0  0  0  0  0  0  0  0  0  0  0  0
   -2.1710   13.9650   -0.3570 O   0  0  0  0  0  0  0  0  0  0  0  0
   -2.3000   14.4170   -2.5390 O   0  0  0  0  0  0  0  0  0  0  0  0
   -6.5550   14.8680   -0.2560 C   0  0  0  0  0  0  0  0  0  0  0  0
   -8.4400   15.5270   -1.6450 O   0  0  0  0  0  0  0  0  0  0  0  0
   -6.2310   13.4810    1.8710 S   0  0  0  0  0  0  0  0  0  0  0  0
   -7.4970   14.8510    0.8680 C   0  0  0  0  0  0  0  0  0  0  0  0
   -9.3500   15.4070   -0.6010 C   0  0  0  0  0  0  0  0  0  0  0  0
  -10.5610   15.5410   -0.7410 O   0  0  0  0  0  0  0  0  0  0  0  0
   -5.6540   12.0130    2.6310 C   0  0  0  0  0  0  0  0  0  0  0  0
   -6.7500   14.3910    2.8760 O   0  0  0  0  0  0  0  0  0  0  0  0
   -7.0730   13.0200    0.7830 O   0  0  0  0  0  0  0  0  0  0  0  0
   -8.7870   15.1010    0.7070 C   0  0  0  0  0  0  0  0  0  0  0  0
  1  2  1  0
  2  3  2  0
  2  4  1  0
  3  5  1  0
  4  6  2  0
  3  7  1  0
  7  8  1  0
  5  9  2  0
  5 10  1  0
  6 11  1  0
  7 11  2  0
  6 12  1  0
 13  8  1  0
 11 14  1  0
 12 15  1  0
 15 16  2  0
 13 17  1  0
 13 18  2  0
 13 19  2  0
 14 20  2  0
 15 20  1  0
M  END
