mac-x0436-mac-x0453
     RDKit          3D

 25 27  0  0  0  0  0  0  0  0999 V2000
    0.7520   11.1610   -2.9500 O   0  0  0  0  0  0  0  0  0  0  0  0
    1.2640   12.4110   -2.9300 C   0  0  0  0  0  0  0  0  0  0  0  0
    1.4630   12.9910   -1.8820 O   0  0  0  0  0  0  0  0  0  0  0  0
    1.5320   12.9770   -4.3060 C   0  0  0  0  0  0  0  0  0  0  0  0
    0.2370   13.3360   -5.0200 C   0  0  0  0  0  0  0  0  0  0  0  0
   -0.5140   12.0760   -5.3780 C   0  0  0  0  0  0  0  0  0  0  0  0
   -1.8130   11.6550   -4.6150 C   0  0  0  0  0  0  0  0  0  0  0  0
   -0.0300   11.3520   -6.3580 N   0  0  0  0  0  0  0  0  0  0  0  0
   -2.2740   12.3360   -3.5800 N   0  0  0  0  0  0  0  0  0  0  0  0
   -2.4310   10.5220   -5.1120 N   0  0  0  0  0  0  0  0  0  0  0  0
   -0.6780   10.1680   -6.7490 C   0  0  0  0  0  0  0  0  0  0  0  0
   -1.7670   13.5580   -2.9100 C   0  0  0  0  0  0  0  0  0  0  0  0
   -1.8680    9.7450   -6.1420 C   0  0  0  0  0  0  0  0  0  0  0  0
   -0.1160    9.3970   -7.7740 C   0  0  0  0  0  0  0  0  0  0  0  0
   -0.7340    8.2160   -8.1930 C   0  0  0  0  0  0  0  0  0  0  0  0
   -2.4850    8.5620   -6.5620 C   0  0  0  0  0  0  0  0  0  0  0  0
   -2.7770   14.1480   -2.0080 N   0  0  0  0  0  0  0  0  0  0  0  0
   -1.9210    7.7990   -7.5850 C   0  0  0  0  0  0  0  0  0  0  0  0
   -2.9230   13.9590   -0.6520 C   0  0  0  0  0  0  0  0  0  0  0  0
   -3.7670   14.9980   -2.4020 C   0  0  0  0  0  0  0  0  0  0  0  0
   -4.0310   14.7100   -0.2940 C   0  0  0  0  0  0  0  0  0  0  0  0
   -4.5330   15.3520   -1.3970 N   0  0  0  0  0  0  0  0  0  0  0  0
   -4.7270   14.9100    1.0090 C   0  0  0  0  0  0  0  0  0  0  0  0
   -6.0130   14.0710    1.1470 C   0  0  0  0  0  0  0  0  0  0  0  0
   -6.7830   14.3440    2.3570 N   0  0  0  0  0  0  0  0  0  0  0  0
  1  2  1  0
  2  3  2  0
  2  4  1  0
  4  5  1  0
  5  6  1  0
  6  7  1  0
  6  8  2  0
  7  9  2  3
  7 10  1  0
  8 11  1  0
  9 12  1  0
 10 13  1  0
 11 13  2  0
 11 14  1  0
 14 15  2  0
 13 16  1  0
 12 17  1  0
 15 18  1  0
 16 18  2  0
 17 19  1  0
 17 20  1  0
 19 21  2  0
 20 22  2  0
 21 22  1  0
 21 23  1  0
 23 24  1  0
 24 25  1  0
M  END
