mac-x0433-diamond-x0969_0_A
     RDKit          3D

 14 15  0  0  0  0  0  0  0  0999 V2000
   -2.4740   16.0190    0.2530 C   0  0  0  0  0  0  0  0  0  0  0  0
   -3.8910   16.2800    0.7460 C   0  0  0  0  0  0  0  0  0  0  0  0
   -4.4900   15.0630    1.3880 C   0  0  2  0  0  0  0  0  0  0  0  0
   -3.3560   14.0580    1.4580 C   0  0  0  0  0  0  0  0  0  0  0  0
   -5.4580   14.4090    0.4170 C   0  0  2  0  0  0  0  0  0  0  0  0
   -4.8260   14.5080   -0.8980 N   0  0  0  0  0  0  0  0  0  0  0  0
   -6.8730   14.9210    0.0800 C   0  0  2  0  0  0  0  0  0  0  0  0
   -2.7290   13.9950    0.0780 C   0  0  0  0  0  0  0  0  0  0  0  0
   -7.8840   14.8570    1.2310 C   0  0  0  0  0  0  0  0  0  0  0  0
   -5.9020   14.1960   -1.8010 C   0  0  1  0  0  0  0  0  0  0  0  0
   -7.1690   13.9940   -0.9990 N   0  0  0  0  0  0  0  0  0  0  0  0
   -3.4880   14.2270   -1.0190 C   0  0  0  0  0  0  0  0  0  0  0  0
   -6.2380   15.1440   -2.8270 N   0  0  0  0  0  0  0  0  0  0  0  0
   -7.1460   12.7570   -0.2050 N   0  0  0  0  0  0  0  0  0  0  0  0
  1  2  1  0
  3  2  1  6
  3  4  1  0
  3  5  1  0
  5  6  1  6
  5  7  1  0
  4  8  1  0
  7  9  1  1
  6 10  1  0
  7 11  1  0
 10 11  1  0
  6 12  1  0
  8 12  2  0
 10 13  1  6
 11 14  1  0
M  END
