mac-x0546-mac-x0451
     RDKit          3D

 26 29  0  0  0  0  0  0  0  0999 V2000
   -4.2850   15.4450   -5.6080 C   0  0  0  0  0  0  0  0  0  0  0  0
   -3.5170   16.3140   -4.7520 O   0  0  0  0  0  0  0  0  0  0  0  0
   -2.2210   16.0880   -4.9060 C   0  0  0  0  0  0  0  0  0  0  0  0
   -1.5550   15.0380   -4.4320 C   0  0  0  0  0  0  0  0  0  0  0  0
   -1.5570   17.1380   -5.6670 C   0  0  0  0  0  0  0  0  0  0  0  0
   -2.1090   14.0830   -3.5780 O   0  0  0  0  0  0  0  0  0  0  0  0
   -0.1380   14.8730   -4.8820 C   0  0  1  0  0  0  0  0  0  0  0  0
   -0.2160   17.2710   -5.6480 C   0  0  0  0  0  0  0  0  0  0  0  0
    0.4660   16.2300   -4.8580 C   0  0  0  0  0  0  0  0  0  0  0  0
    0.9090   14.1520   -4.1320 C   0  0  0  0  0  0  0  0  0  0  0  0
   -3.0080   14.3650   -2.5100 C   0  0  0  0  0  0  0  0  0  0  0  0
    0.9250   12.6680   -3.9290 C   0  0  0  0  0  0  0  0  0  0  0  0
    1.5230   16.3430   -4.1510 N   0  0  0  0  0  0  0  0  0  0  0  0
    1.7960   15.0570   -3.7280 C   0  0  0  0  0  0  0  0  0  0  0  0
   -4.2820   14.7440   -2.9180 C   0  0  0  0  0  0  0  0  0  0  0  0
   -2.7290   14.2720   -1.1130 C   0  0  0  0  0  0  0  0  0  0  0  0
    0.4780   12.1490   -2.5750 C   0  0  0  0  0  0  0  0  0  0  0  0
   -3.7850   14.5410   -0.1940 C   0  0  0  0  0  0  0  0  0  0  0  0
   -5.3010   15.0130   -2.0040 C   0  0  0  0  0  0  0  0  0  0  0  0
    0.5840   12.6420   -1.4650 O   0  0  0  0  0  0  0  0  0  0  0  0
   -0.1100   10.9420   -2.6880 O   0  0  0  0  0  0  0  0  0  0  0  0
   -5.0570   14.8970   -0.6300 C   0  0  0  0  0  0  0  0  0  0  0  0
   -3.8100   14.5000    1.5340 S   0  0  0  0  0  0  0  0  0  0  0  0
   -5.4800   14.9180    1.5250 C   0  0  0  0  0  0  0  0  0  0  0  0
   -5.9960   15.1030    0.3480 N   0  0  0  0  0  0  0  0  0  0  0  0
   -6.2170   15.0500    2.6400 N   0  0  0  0  0  0  0  0  0  0  0  0
  1  2  1  0
  2  3  1  0
  3  4  2  0
  3  5  1  0
  4  6  1  0
  7  4  1  1
  5  8  2  0
  7  9  1  0
  8  9  1  0
  7 10  1  0
  6 11  1  0
 10 12  1  0
  9 13  2  0
 10 14  2  0
 13 14  1  0
 11 15  2  0
 11 16  1  0
 12 17  1  0
 16 18  2  0
 15 19  1  0
 17 20  2  0
 17 21  1  0
 18 22  1  0
 19 22  2  0
 18 23  1  0
 23 24  1  0
 22 25  1  0
 24 25  2  0
 24 26  1  0
M  END
