mac-x0139-diamond-x0574_0_A
     RDKit          3D

 19 20  0  0  0  0  0  0  0  0999 V2000
   -2.3570   15.0630   -3.2910 C   0  0  0  0  0  0  0  0  0  0  0  0
   -1.2790   14.7980   -2.3280 N   0  0  0  0  0  0  0  0  0  0  0  0
    0.0950   14.8720   -2.8900 C   0  0  0  0  0  0  0  0  0  0  0  0
   -1.5140   14.7260   -0.9310 C   0  0  0  0  0  0  0  0  0  0  0  0
    0.3870   13.6610   -3.7760 C   0  0  0  0  0  0  0  0  0  0  0  0
   -2.7730   14.8560   -0.4150 C   0  0  0  0  0  0  0  0  0  0  0  0
   -0.4250   14.4930   -0.0690 N   0  0  0  0  0  0  0  0  0  0  0  0
    0.9910   12.5460   -2.9740 C   0  0  0  0  0  0  0  0  0  0  0  0
   -2.9210   14.7580    1.0420 C   0  0  0  0  0  0  0  0  0  0  0  0
   -0.6780   14.4160    1.2140 C   0  0  0  0  0  0  0  0  0  0  0  0
   -4.1300   15.0620   -0.8370 C   0  0  0  0  0  0  0  0  0  0  0  0
    1.9180   12.6320   -2.1950 O   0  0  0  0  0  0  0  0  0  0  0  0
    0.3920   11.3560   -3.1760 O   0  0  0  0  0  0  0  0  0  0  0  0
    0.2120   14.1490    2.1620 N   0  0  0  0  0  0  0  0  0  0  0  0
   -1.8520   14.5760    1.7820 N   0  0  0  0  0  0  0  0  0  0  0  0
   -4.1240   14.8560    1.4460 N   0  0  0  0  0  0  0  0  0  0  0  0
   -4.8580   15.0180    0.3090 C   0  0  0  0  0  0  0  0  0  0  0  0
   -6.2270   15.1080    0.3970 O   0  0  0  0  0  0  0  0  0  0  0  0
   -6.6920   14.5970    1.6600 C   0  0  0  0  0  0  0  0  0  0  0  0
  1  2  1  0
  2  3  1  0
  2  4  1  0
  3  5  1  0
  4  6  2  0
  4  7  1  0
  5  8  1  0
  6  9  1  0
  7 10  2  0
  6 11  1  0
  8 12  2  0
  8 13  1  0
 10 14  1  0
  9 15  1  0
 10 15  1  0
  9 16  2  0
 11 17  2  0
 16 17  1  0
 17 18  1  0
 18 19  1  0
M  END
