mac-x0496-mac-x0212
     RDKit          3D

 22 23  0  0  0  0  0  0  0  0999 V2000
   -9.5000   17.5040    4.4720 C   0  0  0  0  0  0  0  0  0  0  0  0
   -9.6350   16.5550    3.3300 C   0  0  0  0  0  0  0  0  0  0  0  0
  -10.3770   16.7740    2.2400 N   0  0  0  0  0  0  0  0  0  0  0  0
   -9.0750   15.3370    3.1430 N   0  0  0  0  0  0  0  0  0  0  0  0
  -10.2660   15.7410    1.4520 O   0  0  0  0  0  0  0  0  0  0  0  0
   -9.4740   14.8400    1.9690 C   0  0  0  0  0  0  0  0  0  0  0  0
   -9.1100   13.5000    1.3450 C   0  0  0  0  0  0  0  0  0  0  0  0
   -7.8910   13.5270    0.5200 N   0  0  0  0  0  0  0  0  0  0  0  0
   -6.6240   14.1580    1.0200 S   0  0  0  0  0  0  0  0  0  0  0  0
   -6.9350   15.3160    0.1760 O   0  0  0  0  0  0  0  0  0  0  0  0
   -6.0480   12.7810    1.6390 C   0  0  0  0  0  0  0  0  0  0  0  0
   -6.4210   14.9720    2.3850 N   0  0  0  0  0  0  0  0  0  0  0  0
   -5.0160   14.3880    0.2230 C   0  0  0  0  0  0  0  0  0  0  0  0
   -4.0950   14.5900    1.2300 C   0  0  0  0  0  0  0  0  0  0  0  0
   -4.7290   14.3820   -1.0850 C   0  0  0  0  0  0  0  0  0  0  0  0
   -2.7790   14.7980    0.8970 C   0  0  0  0  0  0  0  0  0  0  0  0
   -3.3810   14.5980   -1.4040 C   0  0  0  0  0  0  0  0  0  0  0  0
   -2.8640   14.6250   -2.7920 C   0  0  2  0  0  0  0  0  0  0  0  0
   -2.4320   14.7990   -0.4230 C   0  0  0  0  0  0  0  0  0  0  0  0
   -1.4480   14.8060   -2.7070 N   0  0  0  0  0  0  0  0  0  0  0  0
   -3.3510   15.7780   -3.4550 O   0  0  0  0  0  0  0  0  0  0  0  0
   -0.7000   13.8940   -2.8720 O   0  0  0  0  0  0  0  0  0  0  0  0
  1  2  1  0
  2  3  2  0
  2  4  1  0
  3  5  1  0
  4  6  2  0
  5  6  1  0
  6  7  1  0
  7  8  1  0
  8  9  1  0
  9 10  2  0
  9 11  1  0
  9 12  1  0
  9 13  1  0
 13 14  2  0
 13 15  1  0
 14 16  1  0
 15 17  2  0
 17 18  1  0
 16 19  2  0
 17 19  1  0
 18 20  1  0
 18 21  1  6
 20 22  2  0
M  END
