mac-x0385-mac-x0193
     RDKit          3D

 25 26  0  0  0  0  0  0  0  0999 V2000
   -5.2750   15.5500   -0.7050 C   0  0  0  0  0  0  0  0  0  0  0  0
   -3.8560   15.2740   -0.3410 C   0  0  0  0  0  0  0  0  0  0  0  0
   -2.9400   14.9490   -1.3010 C   0  0  0  0  0  0  0  0  0  0  0  0
   -3.3790   15.3290    0.9620 C   0  0  0  0  0  0  0  0  0  0  0  0
   -4.2400   15.6580    2.0050 N   0  0  0  0  0  0  0  0  0  0  0  0
   -2.0910   15.0820    1.2890 N   0  0  0  0  0  0  0  0  0  0  0  0
   -1.6580   14.7000   -1.0400 N   0  0  0  0  0  0  0  0  0  0  0  0
   -1.2860   14.7810    0.2450 C   0  0  0  0  0  0  0  0  0  0  0  0
    0.1500   14.5190    0.4810 C   0  0  0  0  0  0  0  0  0  0  0  0
    0.9180   14.7100   -0.8450 C   0  0  0  0  0  0  0  0  0  0  0  0
    1.3010   13.4090   -1.5410 C   0  0  0  0  0  0  0  0  0  0  0  0
    1.1470   13.4740   -2.9660 N   0  0  0  0  0  0  0  0  0  0  0  0
    0.8430   12.4540   -3.6720 C   0  0  0  0  0  0  0  0  0  0  0  0
    0.6030   11.2100   -3.2020 O   0  0  0  0  0  0  0  0  0  0  0  0
    0.7390   12.6290   -5.1790 C   0  0  0  0  0  0  0  0  0  0  0  0
    0.3290   11.4010   -5.8230 N   0  0  0  0  0  0  0  0  0  0  0  0
    0.8680   11.1340   -7.0580 C   0  0  0  0  0  0  0  0  0  0  0  0
    1.9870   11.4700   -7.3950 O   0  0  0  0  0  0  0  0  0  0  0  0
   -0.0350   10.4480   -7.8340 N   0  0  0  0  0  0  0  0  0  0  0  0
    0.3240    9.5940   -8.9640 C   0  0  0  0  0  0  0  0  0  0  0  0
    1.5010    8.6710   -8.6350 C   0  0  0  0  0  0  0  0  0  0  0  0
    0.5360   10.4100  -10.2430 C   0  0  0  0  0  0  0  0  0  0  0  0
    2.1720    8.1350   -9.9020 C   0  0  0  0  0  0  0  0  0  0  0  0
    0.6930    9.5100  -11.4650 C   0  0  0  0  0  0  0  0  0  0  0  0
    1.2090    8.1180  -11.0870 C   0  0  0  0  0  0  0  0  0  0  0  0
  1  2  1  0
  2  3  2  0
  2  4  1  0
  4  5  1  0
  4  6  2  0
  3  7  1  0
  6  8  1  0
  7  8  2  0
  8  9  1  0
  9 10  1  0
 10 11  1  0
 11 12  1  0
 12 13  2  3
 13 14  1  0
 13 15  1  0
 15 16  1  0
 16 17  1  0
 17 18  2  0
 17 19  1  0
 19 20  1  0
 20 21  1  0
 20 22  1  0
 21 23  1  0
 22 24  1  0
 23 25  1  0
 24 25  1  0
M  END
