mac-x0282-mac-x0441
     RDKit          3D

 27 30  0  0  0  0  0  0  0  0999 V2000
    0.6500   11.2740   -3.1410 O   0  0  0  0  0  0  0  0  0  0  0  0
    0.7090   12.5650   -3.5490 C   0  0  0  0  0  0  0  0  0  0  0  0
    0.8230   13.5900   -2.7600 N   0  0  0  0  0  0  0  0  0  0  0  0
    0.6470   12.8800   -5.0210 C   0  0  0  0  0  0  0  0  0  0  0  0
    0.9020   13.4540   -1.3130 C   0  0  0  0  0  0  0  0  0  0  0  0
    0.2820   11.8340   -5.9650 N   0  0  0  0  0  0  0  0  0  0  0  0
   -0.3070   13.9760   -0.5770 C   0  0  0  0  0  0  0  0  0  0  0  0
    1.0180   11.7990   -7.1050 N   0  0  0  0  0  0  0  0  0  0  0  0
   -0.6820   10.8630   -5.9430 C   0  0  0  0  0  0  0  0  0  0  0  0
   -1.4060   14.3920   -1.3120 C   0  0  0  0  0  0  0  0  0  0  0  0
   -0.3830   14.0480    0.8270 C   0  0  0  0  0  0  0  0  0  0  0  0
    0.5010   10.7870   -7.8320 C   0  0  0  0  0  0  0  0  0  0  0  0
   -0.5560   10.1770   -7.1340 C   0  0  0  0  0  0  0  0  0  0  0  0
   -1.6900   10.5560   -4.8980 C   0  0  0  0  0  0  0  0  0  0  0  0
    0.9590   10.3460   -9.2030 C   0  0  0  0  0  0  0  0  0  0  0  0
   -2.5250   14.8400   -0.6120 C   0  0  0  0  0  0  0  0  0  0  0  0
   -1.4390   14.4800    1.5660 N   0  0  0  0  0  0  0  0  0  0  0  0
   -1.4120    9.0280   -7.5370 C   0  0  0  0  0  0  0  0  0  0  0  0
   -2.8520    9.7870   -5.5630 C   0  0  0  0  0  0  0  0  0  0  0  0
    1.6600    9.1840   -9.1940 F   0  0  0  0  0  0  0  0  0  0  0  0
   -0.1040   10.1250  -10.0120 F   0  0  0  0  0  0  0  0  0  0  0  0
    1.6810   11.2590   -9.8790 F   0  0  0  0  0  0  0  0  0  0  0  0
   -3.8000   15.3200   -0.9870 C   0  0  0  0  0  0  0  0  0  0  0  0
   -2.4650   14.8500    0.7780 C   0  0  0  0  0  0  0  0  0  0  0  0
   -2.3530    8.5940   -6.3990 C   0  0  0  0  0  0  0  0  0  0  0  0
   -4.4810   15.5980    0.1680 C   0  0  0  0  0  0  0  0  0  0  0  0
   -3.6650   15.3100    1.2280 N   0  0  0  0  0  0  0  0  0  0  0  0
  1  2  1  0
  2  3  2  3
  2  4  1  0
  3  5  1  0
  4  6  1  0
  5  7  1  0
  6  8  1  0
  6  9  1  0
  7 10  2  0
  7 11  1  0
  8 12  2  0
  9 13  2  0
 12 13  1  0
  9 14  1  0
 12 15  1  0
 10 16  1  0
 11 17  2  0
 13 18  1  0
 14 19  1  0
 15 20  1  0
 15 21  1  0
 15 22  1  0
 16 23  1  0
 16 24  2  0
 17 24  1  0
 18 25  1  0
 19 25  1  0
 23 26  2  0
 24 27  1  0
 26 27  1  0
M  END
