mac-x0437-diamond-x0159_0_B
     RDKit          3D

 33 37  0  0  0  0  0  0  0  0999 V2000
    1.4600   13.0970   -2.0630 O   0  0  0  0  0  0  0  0  0  0  0  0
    1.2030   12.3020   -3.1170 C   0  0  0  0  0  0  0  0  0  0  0  0
    0.7200   11.1850   -2.9700 O   0  0  0  0  0  0  0  0  0  0  0  0
    1.5460   12.9590   -4.4240 C   0  0  0  0  0  0  0  0  0  0  0  0
    0.2980   13.1480   -5.2800 C   0  0  0  0  0  0  0  0  0  0  0  0
   -0.4920   11.9380   -5.4070 N   0  0  0  0  0  0  0  0  0  0  0  0
   -1.4030   11.4510   -4.5170 C   0  0  0  0  0  0  0  0  0  0  0  0
   -0.4550   11.0810   -6.4570 C   0  0  0  0  0  0  0  0  0  0  0  0
   -1.9460   10.3260   -4.9420 N   0  0  0  0  0  0  0  0  0  0  0  0
   -1.3580   10.0820   -6.1580 C   0  0  0  0  0  0  0  0  0  0  0  0
    0.2720   11.1010   -7.6160 C   0  0  0  0  0  0  0  0  0  0  0  0
   -1.5430    9.0310   -7.0710 C   0  0  0  0  0  0  0  0  0  0  0  0
    0.0910   10.0890   -8.5360 C   0  0  0  0  0  0  0  0  0  0  0  0
   -0.8120    9.0440   -8.2640 C   0  0  0  0  0  0  0  0  0  0  0  0
    0.8770   10.1830   -9.8060 C   0  0  0  0  0  0  0  0  0  0  0  0
    1.5680    8.9900  -10.2510 N   0  0  0  0  0  0  0  0  0  0  0  0
    1.8720    8.0040   -9.2310 C   0  0  0  0  0  0  0  0  0  0  0  0
    2.3480    9.2570  -11.3050 C   0  0  0  0  0  0  0  0  0  0  0  0
    0.9570    6.7970   -9.3830 C   0  0  0  0  0  0  0  0  0  0  0  0
    2.1330   10.4120  -12.0080 N   0  0  0  0  0  0  0  0  0  0  0  0
    3.3460    8.5790  -11.8190 N   0  0  0  0  0  0  0  0  0  0  0  0
    3.7850    9.3330  -12.8800 C   0  0  0  0  0  0  0  0  0  0  0  0
    3.0340   10.4920  -13.0150 C   0  0  0  0  0  0  0  0  0  0  0  0
    1.3840    5.6340   -8.5600 C   0  0  0  0  0  0  0  0  0  0  0  0
    2.3040    4.7270   -9.0800 C   0  0  0  0  0  0  0  0  0  0  0  0
    0.8780    5.4460   -7.2770 C   0  0  0  0  0  0  0  0  0  0  0  0
    3.2500   11.4510  -13.9980 C   0  0  0  0  0  0  0  0  0  0  0  0
    4.8250    9.0940  -13.7760 C   0  0  0  0  0  0  0  0  0  0  0  0
    2.7210    3.6400   -8.3320 C   0  0  0  0  0  0  0  0  0  0  0  0
    1.2960    4.3590   -6.5340 C   0  0  0  0  0  0  0  0  0  0  0  0
    4.2940   11.1990  -14.8850 C   0  0  0  0  0  0  0  0  0  0  0  0
    5.0710   10.0400  -14.7790 C   0  0  0  0  0  0  0  0  0  0  0  0
    2.2210    3.4580   -7.0650 C   0  0  0  0  0  0  0  0  0  0  0  0
  1  2  1  0
  2  3  2  0
  2  4  1  0
  4  5  1  0
  5  6  1  0
  6  7  1  0
  6  8  1  0
  7  9  2  0
  8 10  2  0
  9 10  1  0
  8 11  1  0
 10 12  1  0
 11 13  2  0
 12 14  2  0
 13 14  1  0
 13 15  1  0
 15 16  1  0
 16 17  1  0
 16 18  1  0
 17 19  1  0
 18 20  1  0
 18 21  2  0
 21 22  1  0
 20 23  1  0
 22 23  2  0
 19 24  1  0
 24 25  2  0
 24 26  1  0
 23 27  1  0
 22 28  1  0
 25 29  1  0
 26 30  2  0
 27 31  2  0
 28 32  2  0
 31 32  1  0
 29 33  2  0
 30 33  1  0
M  END
