mac-x0321-diamond-x0844_0_A
     RDKit          3D

 11 11  0  0  0  0  0  0  0  0999 V2000
   -4.4990   15.3920    1.6200 Cl  0  0  0  0  0  0  0  0  0  0  0  0
   -4.5660   15.4950   -0.1340 C   0  0  1  0  0  0  0  0  0  0  0  0
   -3.4000   14.7400   -0.7330 C   0  0  0  0  0  0  0  0  0  0  0  0
   -5.8800   15.0570   -0.7610 C   0  0  0  0  0  0  0  0  0  0  0  0
   -6.9470   14.8180   -0.1790 O   0  0  0  0  0  0  0  0  0  0  0  0
   -3.3340   15.1440   -2.2000 C   0  0  1  0  0  0  0  0  0  0  0  0
   -5.8290   14.8780   -2.2380 C   0  0  0  0  0  0  0  0  0  0  0  0
   -2.1150   14.5420   -2.9020 C   0  0  0  0  0  0  0  0  0  0  0  0
   -4.6490   14.9070   -2.8900 C   0  0  0  0  0  0  0  0  0  0  0  0
   -1.0550   14.4150   -2.0700 O   0  0  0  0  0  0  0  0  0  0  0  0
   -2.0200   14.2060   -4.0660 O   0  0  0  0  0  0  0  0  0  0  0  0
  2  1  1  1
  2  3  1  0
  2  4  1  0
  4  5  2  0
  3  6  1  0
  4  7  1  0
  6  8  1  6
  6  9  1  0
  7  9  2  0
  8 10  1  0
  8 11  2  0
M  END
