mac-x0417-mac-x0397
     RDKit          3D

 27 30  0  0  0  0  0  0  0  0999 V2000
    1.4460   12.6000   -2.3820 O   0  0  0  0  0  0  0  0  0  0  0  0
    0.6910   11.8460   -3.2000 C   0  0  0  0  0  0  0  0  0  0  0  0
    0.5510   10.6560   -2.9810 O   0  0  0  0  0  0  0  0  0  0  0  0
    0.0540   12.5890   -4.3470 C   0  0  1  0  0  0  0  0  0  0  0  0
    0.4580   14.0740   -4.3500 C   0  0  0  0  0  0  0  0  0  0  0  0
    0.1650   11.7510   -5.6010 C   0  0  0  0  0  0  0  0  0  0  0  0
   -0.2570   14.7900   -3.1740 C   0  0  0  0  0  0  0  0  0  0  0  0
    1.1730   11.8220   -6.4850 N   0  0  0  0  0  0  0  0  0  0  0  0
   -0.7830   10.7720   -5.9950 C   0  0  0  0  0  0  0  0  0  0  0  0
   -1.7530   14.9240   -3.4770 C   0  0  0  0  0  0  0  0  0  0  0  0
    0.8830   10.8810   -7.4710 O   0  0  0  0  0  0  0  0  0  0  0  0
   -0.2860   10.2530   -7.1730 C   0  0  0  0  0  0  0  0  0  0  0  0
   -1.9940   10.2690   -5.4880 C   0  0  0  0  0  0  0  0  0  0  0  0
   -0.9100    9.2480   -7.9100 C   0  0  0  0  0  0  0  0  0  0  0  0
   -2.6490    9.2590   -6.2000 C   0  0  0  0  0  0  0  0  0  0  0  0
   -2.7830   14.9340   -2.3490 C   0  0  0  0  0  0  0  0  0  0  0  0
   -2.1180    8.7560   -7.3900 C   0  0  0  0  0  0  0  0  0  0  0  0
   -4.0940   15.0780   -2.7800 C   0  0  0  0  0  0  0  0  0  0  0  0
   -2.5180   14.8150   -0.9500 C   0  0  0  0  0  0  0  0  0  0  0  0
   -3.6280   14.8610   -0.0500 C   0  0  0  0  0  0  0  0  0  0  0  0
   -5.1320   15.1090   -1.8760 C   0  0  0  0  0  0  0  0  0  0  0  0
   -6.7620   15.2770   -2.3430 Cl  0  0  0  0  0  0  0  0  0  0  0  0
   -4.9330   15.0070   -0.5170 C   0  0  0  0  0  0  0  0  0  0  0  0
   -3.7090   14.7650    1.6710 S   0  0  0  0  0  0  0  0  0  0  0  0
   -5.4280   14.9340    1.6030 C   0  0  0  0  0  0  0  0  0  0  0  0
   -5.9220   15.0390    0.4270 N   0  0  0  0  0  0  0  0  0  0  0  0
   -6.2470   14.9680    2.6610 N   0  0  0  0  0  0  0  0  0  0  0  0
  1  2  1  0
  2  3  2  0
  2  4  1  0
  4  5  1  6
  4  6  1  0
  5  7  1  0
  6  8  2  0
  6  9  1  0
  7 10  1  0
  8 11  1  0
  9 12  2  0
 11 12  1  0
  9 13  1  0
 12 14  1  0
 13 15  2  0
 10 16  1  0
 14 17  2  0
 15 17  1  0
 16 18  2  0
 16 19  1  0
 19 20  2  0
 18 21  1  0
 21 22  1  0
 20 23  1  0
 21 23  2  0
 20 24  1  0
 24 25  1  0
 23 26  1  0
 25 26  2  0
 25 27  1  0
M  END
