mac-x0361-mac-x0396
     RDKit          3D

 19 20  0  0  0  0  0  0  0  0999 V2000
   -6.8070   12.5030    2.1940 N   0  0  0  0  0  0  0  0  0  0  0  0
   -6.6930   12.4150    0.7450 C   0  0  2  0  0  0  0  0  0  0  0  0
   -7.4180   11.2970    0.2770 O   0  0  0  0  0  0  0  0  0  0  0  0
   -5.3270   12.6330    0.0260 C   0  0  0  0  0  0  0  0  0  0  0  0
   -7.1170   13.6480    0.0860 C   0  0  0  0  0  0  0  0  0  0  0  0
   -4.1400   13.1230    0.6220 C   0  0  0  0  0  0  0  0  0  0  0  0
   -5.2700   12.3610   -1.3680 C   0  0  0  0  0  0  0  0  0  0  0  0
   -8.3120   14.2130   -0.3000 C   0  0  0  0  0  0  0  0  0  0  0  0
   -5.9630   14.2950   -0.1760 C   0  0  0  0  0  0  0  0  0  0  0  0
   -2.9770   13.3360   -0.1390 C   0  0  0  0  0  0  0  0  0  0  0  0
   -4.1070   12.5720   -2.1200 C   0  0  0  0  0  0  0  0  0  0  0  0
   -5.8980   15.4430   -0.8040 C   0  0  0  0  0  0  0  0  0  0  0  0
   -8.3320   15.4050   -0.9560 N   0  0  0  0  0  0  0  0  0  0  0  0
   -4.5190   15.9100   -0.9590 C   0  0  0  0  0  0  0  0  0  0  0  0
   -2.9690   13.0620   -1.5000 C   0  0  0  0  0  0  0  0  0  0  0  0
   -7.1160   16.0000   -1.2040 C   0  0  0  0  0  0  0  0  0  0  0  0
   -1.8170   13.2890   -2.2020 O   0  0  0  0  0  0  0  0  0  0  0  0
   -3.8240   16.0630    0.2170 N   0  0  0  0  0  0  0  0  0  0  0  0
   -3.9900   16.0930   -2.0460 O   0  0  0  0  0  0  0  0  0  0  0  0
  2  1  1  1
  2  3  1  0
  2  4  1  0
  2  5  1  0
  4  6  2  0
  4  7  1  0
  5  8  2  0
  5  9  1  0
  6 10  1  0
  7 11  2  0
  9 12  2  0
  8 13  1  0
 12 14  1  0
 10 15  2  0
 11 15  1  0
 12 16  1  0
 13 16  2  0
 15 17  1  0
 14 18  1  0
 14 19  2  0
M  END
