mac-x1493-diamond-x0962_1_A
     RDKit          3D

 14 16  0  0  0  0  0  0  0  0999 V2000
   -1.9240   14.0360   -1.1990 O   0  0  0  0  0  0  0  0  0  0  0  0
   -2.7680   15.1400   -0.9660 C   0  0  0  0  0  0  0  0  0  0  0  0
   -2.2350   16.1850   -1.7430 O   0  0  0  0  0  0  0  0  0  0  0  0
   -3.0680   15.3650    0.5670 C   0  0  0  0  0  0  0  0  0  0  0  0
   -4.1280   14.8660   -1.4870 C   0  0  0  0  0  0  0  0  0  0  0  0
   -4.5130   14.6590   -2.7830 C   0  0  0  0  0  0  0  0  0  0  0  0
   -5.0780   14.8160   -0.4870 C   0  0  0  0  0  0  0  0  0  0  0  0
   -4.5410   15.0680    0.7340 C   0  0  0  0  0  0  0  0  0  0  0  0
   -6.4070   14.5360   -0.7360 C   0  0  0  0  0  0  0  0  0  0  0  0
   -5.8470   14.4020   -2.9850 C   0  0  0  0  0  0  0  0  0  0  0  0
   -5.3760   15.0240    1.8460 C   0  0  0  0  0  0  0  0  0  0  0  0
   -6.7920   14.3300   -2.0050 N   0  0  0  0  0  0  0  0  0  0  0  0
   -7.2450   14.4900    0.3740 C   0  0  0  0  0  0  0  0  0  0  0  0
   -6.7370   14.7260    1.6650 C   0  0  0  0  0  0  0  0  0  0  0  0
  2  1  1  0
  2  3  1  0
  2  4  1  0
  2  5  1  0
  5  6  2  0
  5  7  1  0
  4  8  1  0
  7  8  2  0
  7  9  1  0
  6 10  1  0
  8 11  1  0
  9 12  1  0
 10 12  2  0
  9 13  2  0
 11 14  2  0
 13 14  1  0
M  END
