mac-x0441-diamond-x0722_0_A
     RDKit          3D

 31 33  0  0  0  0  0  0  0  0999 V2000
    0.3220   10.6670   -3.3170 O   0  0  0  0  0  0  0  0  0  0  0  0
    0.6170   11.9840   -3.3810 C   0  0  0  0  0  0  0  0  0  0  0  0
    0.8400   12.6450   -2.2970 N   0  0  0  0  0  0  0  0  0  0  0  0
    0.6580   12.6100   -4.7580 C   0  0  0  0  0  0  0  0  0  0  0  0
    1.1610   14.0670   -2.4150 C   0  0  0  0  0  0  0  0  0  0  0  0
    0.3090   11.7090   -5.8530 N   0  0  0  0  0  0  0  0  0  0  0  0
    0.0200   14.8910   -1.7970 C   0  0  0  0  0  0  0  0  0  0  0  0
    1.0740   11.7150   -6.9800 N   0  0  0  0  0  0  0  0  0  0  0  0
   -0.7180   10.8090   -5.9390 C   0  0  0  0  0  0  0  0  0  0  0  0
   -1.3660   14.2190   -1.6660 C   0  0  0  0  0  0  0  0  0  0  0  0
    0.5090   10.7950   -7.7990 C   0  0  0  0  0  0  0  0  0  0  0  0
   -0.6060   10.2120   -7.1750 C   0  0  0  0  0  0  0  0  0  0  0  0
   -1.7750   10.4920   -4.9390 C   0  0  0  0  0  0  0  0  0  0  0  0
    0.9520   10.3960   -9.1910 C   0  0  0  0  0  0  0  0  0  0  0  0
   -1.5230    9.1640   -7.6840 C   0  0  0  0  0  0  0  0  0  0  0  0
   -2.9130    9.7200   -5.6300 C   0  0  0  0  0  0  0  0  0  0  0  0
   -2.1100   14.5970   -0.4110 C   0  0  0  0  0  0  0  0  0  0  0  0
    1.6410    9.2250   -9.2280 F   0  0  0  0  0  0  0  0  0  0  0  0
   -0.1240   10.2120   -9.9940 F   0  0  0  0  0  0  0  0  0  0  0  0
    1.6770   11.3120   -9.8560 F   0  0  0  0  0  0  0  0  0  0  0  0
   -2.3960    8.6030   -6.5500 C   0  0  0  0  0  0  0  0  0  0  0  0
   -3.4100   15.0590   -0.1490 C   0  0  0  0  0  0  0  0  0  0  0  0
   -1.5000   14.5290    0.8180 N   0  0  0  0  0  0  0  0  0  0  0  0
   -0.1660   14.1290    1.1430 C   0  0  0  0  0  0  0  0  0  0  0  0
   -4.5570   15.3440   -1.0780 C   0  0  0  0  0  0  0  0  0  0  0  0
   -2.2720   14.8960    1.8160 N   0  0  0  0  0  0  0  0  0  0  0  0
   -3.4150   15.2250    1.2600 C   0  0  0  0  0  0  0  0  0  0  0  0
   -4.4620   15.7050    2.1470 C   0  0  0  0  0  0  0  0  0  0  0  0
   -5.8730   14.6970   -0.6540 C   0  0  0  0  0  0  0  0  0  0  0  0
   -6.9760   15.2260   -0.7840 O   0  0  0  0  0  0  0  0  0  0  0  0
   -5.7940   13.4520   -0.0990 N   0  0  0  0  0  0  0  0  0  0  0  0
  1  2  1  0
  2  3  2  3
  2  4  1  0
  3  5  1  0
  4  6  1  0
  5  7  1  0
  6  8  1  0
  6  9  1  0
  7 10  1  0
  8 11  2  0
  9 12  2  0
 11 12  1  0
  9 13  1  0
 11 14  1  0
 12 15  1  0
 13 16  1  0
 10 17  1  0
 14 18  1  0
 14 19  1  0
 14 20  1  0
 15 21  1  0
 16 21  1  0
 17 22  2  0
 17 23  1  0
 23 24  1  0
 22 25  1  0
 23 26  1  0
 22 27  1  0
 26 27  2  0
 27 28  1  0
 25 29  1  0
 29 30  2  0
 29 31  1  0
M  END
