mac-x0392-diamond-x0722_0_A
     RDKit          3D

 15 15  0  0  0  0  0  0  0  0999 V2000
    0.0400   13.5960    0.0390 N   0  0  0  0  0  0  0  0  0  0  0  0
   -0.9060   14.7220   -0.0800 C   0  0  2  0  0  0  0  0  0  0  0  0
   -1.8520   14.7250    1.1530 C   0  0  0  0  0  0  0  0  0  0  0  0
   -1.7440   14.6460   -1.3710 C   0  0  1  0  0  0  0  0  0  0  0  0
   -0.9920   14.3750   -2.6530 C   0  0  0  0  0  0  0  0  0  0  0  0
   -2.9810   13.8110   -1.1670 C   0  0  0  0  0  0  0  0  0  0  0  0
   -3.1830   15.3050    0.8500 N   0  0  0  0  0  0  0  0  0  0  0  0
   -1.4660   14.1050   -3.7370 O   0  0  0  0  0  0  0  0  0  0  0  0
    0.3420   14.4850   -2.4840 O   0  0  0  0  0  0  0  0  0  0  0  0
   -3.9990   15.4540    2.0620 C   0  0  0  0  0  0  0  0  0  0  0  0
   -3.9160   14.5250   -0.1660 C   0  0  1  0  0  0  0  0  0  0  0  0
   -5.0200   15.3420   -0.8670 C   0  0  0  0  0  0  0  0  0  0  0  0
   -6.3860   14.7300   -0.7360 C   0  0  0  0  0  0  0  0  0  0  0  0
   -7.4300   15.3310   -0.9420 O   0  0  0  0  0  0  0  0  0  0  0  0
   -6.3950   13.4180   -0.3620 N   0  0  0  0  0  0  0  0  0  0  0  0
  2  1  1  1
  2  3  1  0
  2  4  1  0
  4  5  1  6
  4  6  1  0
  3  7  1  0
  5  8  2  0
  5  9  1  0
  7 10  1  0
  6 11  1  0
  7 11  1  0
 11 12  1  6
 12 13  1  0
 13 14  2  0
 13 15  1  0
M  END
