mac-x0564-mac-x0180
     RDKit          3D

 20 23  0  0  0  0  0  0  0  0999 V2000
   -0.3560   15.3090   -1.4950 N   0  0  0  0  0  0  0  0  0  0  0  0
   -1.3680   15.4450   -0.5150 C   0  0  0  0  0  0  0  0  0  0  0  0
   -1.2700   16.1480    0.4560 O   0  0  0  0  0  0  0  0  0  0  0  0
   -0.5980   14.4740   -2.3750 C   0  0  0  0  0  0  0  0  0  0  0  0
   -1.8900   13.8590   -1.9920 C   0  0  1  0  0  0  0  0  0  0  0  0
   -0.0610   13.9130   -3.6000 N   0  0  0  0  0  0  0  0  0  0  0  0
   -2.5900   14.5940   -0.8790 C   0  0  1  0  0  0  0  0  0  0  0  0
   -3.7550   14.1690   -0.0790 N   0  0  0  0  0  0  0  0  0  0  0  0
   -2.7550   13.9740   -3.1850 C   0  0  0  0  0  0  0  0  0  0  0  0
   -0.8010   13.3290   -4.4970 C   0  0  0  0  0  0  0  0  0  0  0  0
   -3.5670   15.3250   -1.5430 C   0  0  2  0  0  0  0  0  0  0  0  0
   -5.1160   13.9940    0.2380 C   0  0  0  0  0  0  0  0  0  0  0  0
   -2.2330   13.2070   -4.2670 N   0  0  0  0  0  0  0  0  0  0  0  0
   -4.6850   15.7780   -0.7870 C   0  0  0  0  0  0  0  0  0  0  0  0
   -3.7830   14.6940   -2.8320 C   0  0  0  0  0  0  0  0  0  0  0  0
   -5.8970   14.4890    1.4770 C   0  0  0  0  0  0  0  0  0  0  0  0
   -5.9810   13.4710   -0.5370 O   0  0  0  0  0  0  0  0  0  0  0  0
   -5.0150   14.8930   -3.5400 C   0  0  0  0  0  0  0  0  0  0  0  0
   -5.8760   15.7800   -1.3820 C   0  0  0  0  0  0  0  0  0  0  0  0
   -6.0170   15.3830   -2.7710 C   0  0  0  0  0  0  0  0  0  0  0  0
  1  2  1  0
  2  3  2  0
  1  4  2  0
  5  4  1  6
  4  6  1  0
  2  7  1  0
  5  7  1  0
  7  8  1  1
  5  9  1  0
  6 10  2  0
  7 11  1  0
  8 12  1  0
  9 13  1  0
 10 13  1  0
 11 14  1  1
  9 15  2  0
 11 15  1  0
 12 16  1  0
 12 17  2  0
 15 18  1  0
 14 19  2  0
 18 20  2  0
 19 20  1  0
M  END
