mac-x0284-mac-x0306
     RDKit          3D

 15 16  0  0  0  0  0  0  0  0999 V2000
   -4.0140   15.8790    1.2000 C   0  0  0  0  0  0  0  0  0  0  0  0
   -3.8280   15.5560   -0.2780 C   0  0  2  0  0  0  0  0  0  0  0  0
   -4.9300   14.6710   -0.8770 C   0  0  0  0  0  0  0  0  0  0  0  0
   -2.4020   15.0250   -0.4780 C   0  0  0  0  0  0  0  0  0  0  0  0
   -2.0200   15.0570   -1.9460 C   0  0  1  0  0  0  0  0  0  0  0  0
   -4.5080   14.2670   -2.3480 C   0  0  0  0  0  0  0  0  0  0  0  0
   -5.3040   13.5750    0.0800 N   0  0  0  0  0  0  0  0  0  0  0  0
   -6.2930   15.3240   -0.8930 N   0  0  0  0  0  0  0  0  0  0  0  0
   -0.5680   14.6090   -2.1260 C   0  0  0  0  0  0  0  0  0  0  0  0
   -2.9840   14.1750   -2.7390 C   0  0  1  0  0  0  0  0  0  0  0  0
   -7.1180   14.8510    0.1410 C   0  0  0  0  0  0  0  0  0  0  0  0
   -6.5260   13.8290    0.7270 C   0  0  0  0  0  0  0  0  0  0  0  0
   -2.8280   14.4960   -4.1350 O   0  0  0  0  0  0  0  0  0  0  0  0
    0.2520   14.4030   -1.2410 O   0  0  0  0  0  0  0  0  0  0  0  0
   -0.2060   14.4420   -3.4140 O   0  0  0  0  0  0  0  0  0  0  0  0
  2  1  1  1
  2  3  1  0
  2  4  1  0
  4  5  1  0
  3  6  1  0
  3  7  1  0
  3  8  1  0
  5  9  1  1
  5 10  1  0
  6 10  1  0
  8 11  1  0
  7 12  1  0
 11 12  2  0
 10 13  1  6
  9 14  2  0
  9 15  1  0
M  END
